
---------- Begin Simulation Statistics ----------
simSeconds                                   0.161874                       # Number of seconds simulated (Second)
simTicks                                 161874366250                       # Number of ticks simulated (Tick)
finalTick                                6328689602000                       # Number of ticks from beginning of simulation (restored from checkpoints and never reset) (Tick)
simFreq                                  1000000000000                       # The number of ticks per simulated second ((Tick/Second))
hostSeconds                                    652.10                       # Real time elapsed on the host (Second)
hostTickRate                                248235732                       # The number of ticks simulated per host second (ticks/s) ((Tick/Second))
hostMemory                                    1149744                       # Number of bytes of host memory used (Byte)
simInsts                                    173207563                       # Number of instructions simulated (Count)
simOps                                      280433762                       # Number of ops (including micro ops) simulated (Count)
hostInstRate                                   265615                       # Simulator instruction rate (inst/s) ((Count/Second))
hostOpRate                                     430047                       # Simulator op (including micro ops) rate (op/s) ((Count/Second))
system.apicbridge.power_state.pwrStateResidencyTicks::UNDEFINED 6328689602000                       # Cumulative time (in ticks) in various power states (Tick)
system.bridge.power_state.pwrStateResidencyTicks::UNDEFINED 6328689602000                       # Cumulative time (in ticks) in various power states (Tick)
system.clk_domain.clock                          1000                       # Clock period in ticks (Tick)
system.cpu.numCycles                               21                       # Number of cpu cycles simulated (Cycle)
system.cpu.cpi                               2.625000                       # CPI: cycles per instruction (core level) ((Cycle/Count))
system.cpu.ipc                               0.380952                       # IPC: instructions per cycle (core level) ((Count/Cycle))
system.cpu.numWorkItemsStarted                      0                       # Number of work items this cpu started (Count)
system.cpu.numWorkItemsCompleted                    0                       # Number of work items this cpu completed (Count)
system.cpu.commitStats0.numInsts                    8                       # Number of instructions committed (thread level) (Count)
system.cpu.commitStats0.numOps                     18                       # Number of ops (including micro ops) committed (thread level) (Count)
system.cpu.commitStats0.numInstsNotNOP              0                       # Number of instructions committed excluding NOPs or prefetches (Count)
system.cpu.commitStats0.numOpsNotNOP                0                       # Number of Ops (including micro ops) Simulated (Count)
system.cpu.commitStats0.cpi                  2.625000                       # CPI: cycles per instruction (thread level) ((Cycle/Count))
system.cpu.commitStats0.ipc                  0.380952                       # IPC: instructions per cycle (thread level) ((Count/Cycle))
system.cpu.commitStats0.numMemRefs                  0                       # Number of memory references committed (Count)
system.cpu.commitStats0.numFpInsts                  0                       # Number of float instructions (Count)
system.cpu.commitStats0.numIntInsts                18                       # Number of integer instructions (Count)
system.cpu.commitStats0.numLoadInsts                5                       # Number of load instructions (Count)
system.cpu.commitStats0.numStoreInsts               0                       # Number of store instructions (Count)
system.cpu.commitStats0.numVecInsts                 0                       # Number of vector instructions (Count)
system.cpu.commitStats0.committedInstType::No_OpClass            0      0.00%      0.00% # Class of committed instruction. (Count)
system.cpu.commitStats0.committedInstType::MulZero            0      0.00%      0.00% # Class of committed instruction. (Count)
system.cpu.commitStats0.committedInstType::IntAlu           13     72.22%     72.22% # Class of committed instruction. (Count)
system.cpu.commitStats0.committedInstType::IntMult            0      0.00%     72.22% # Class of committed instruction. (Count)
system.cpu.commitStats0.committedInstType::IntDiv            0      0.00%     72.22% # Class of committed instruction. (Count)
system.cpu.commitStats0.committedInstType::FloatAdd            0      0.00%     72.22% # Class of committed instruction. (Count)
system.cpu.commitStats0.committedInstType::FloatCmp            0      0.00%     72.22% # Class of committed instruction. (Count)
system.cpu.commitStats0.committedInstType::FloatCvt            0      0.00%     72.22% # Class of committed instruction. (Count)
system.cpu.commitStats0.committedInstType::FloatMult            0      0.00%     72.22% # Class of committed instruction. (Count)
system.cpu.commitStats0.committedInstType::FloatMultAcc            0      0.00%     72.22% # Class of committed instruction. (Count)
system.cpu.commitStats0.committedInstType::FloatDiv            0      0.00%     72.22% # Class of committed instruction. (Count)
system.cpu.commitStats0.committedInstType::FloatMisc            0      0.00%     72.22% # Class of committed instruction. (Count)
system.cpu.commitStats0.committedInstType::FloatSqrt            0      0.00%     72.22% # Class of committed instruction. (Count)
system.cpu.commitStats0.committedInstType::SimdAdd            0      0.00%     72.22% # Class of committed instruction. (Count)
system.cpu.commitStats0.committedInstType::SimdAddAcc            0      0.00%     72.22% # Class of committed instruction. (Count)
system.cpu.commitStats0.committedInstType::SimdAlu            0      0.00%     72.22% # Class of committed instruction. (Count)
system.cpu.commitStats0.committedInstType::SimdCmp            0      0.00%     72.22% # Class of committed instruction. (Count)
system.cpu.commitStats0.committedInstType::SimdCvt            0      0.00%     72.22% # Class of committed instruction. (Count)
system.cpu.commitStats0.committedInstType::SimdMisc            0      0.00%     72.22% # Class of committed instruction. (Count)
system.cpu.commitStats0.committedInstType::SimdMult            0      0.00%     72.22% # Class of committed instruction. (Count)
system.cpu.commitStats0.committedInstType::SimdMultAcc            0      0.00%     72.22% # Class of committed instruction. (Count)
system.cpu.commitStats0.committedInstType::SimdMatMultAcc            0      0.00%     72.22% # Class of committed instruction. (Count)
system.cpu.commitStats0.committedInstType::SimdShift            0      0.00%     72.22% # Class of committed instruction. (Count)
system.cpu.commitStats0.committedInstType::SimdShiftAcc            0      0.00%     72.22% # Class of committed instruction. (Count)
system.cpu.commitStats0.committedInstType::SimdDiv            0      0.00%     72.22% # Class of committed instruction. (Count)
system.cpu.commitStats0.committedInstType::SimdSqrt            0      0.00%     72.22% # Class of committed instruction. (Count)
system.cpu.commitStats0.committedInstType::SimdFloatAdd            0      0.00%     72.22% # Class of committed instruction. (Count)
system.cpu.commitStats0.committedInstType::SimdFloatAlu            0      0.00%     72.22% # Class of committed instruction. (Count)
system.cpu.commitStats0.committedInstType::SimdFloatCmp            0      0.00%     72.22% # Class of committed instruction. (Count)
system.cpu.commitStats0.committedInstType::SimdFloatCvt            0      0.00%     72.22% # Class of committed instruction. (Count)
system.cpu.commitStats0.committedInstType::SimdFloatDiv            0      0.00%     72.22% # Class of committed instruction. (Count)
system.cpu.commitStats0.committedInstType::SimdFloatMisc            0      0.00%     72.22% # Class of committed instruction. (Count)
system.cpu.commitStats0.committedInstType::SimdFloatMult            0      0.00%     72.22% # Class of committed instruction. (Count)
system.cpu.commitStats0.committedInstType::SimdFloatMultAcc            0      0.00%     72.22% # Class of committed instruction. (Count)
system.cpu.commitStats0.committedInstType::SimdFloatMatMultAcc            0      0.00%     72.22% # Class of committed instruction. (Count)
system.cpu.commitStats0.committedInstType::SimdFloatSqrt            0      0.00%     72.22% # Class of committed instruction. (Count)
system.cpu.commitStats0.committedInstType::SimdReduceAdd            0      0.00%     72.22% # Class of committed instruction. (Count)
system.cpu.commitStats0.committedInstType::SimdReduceAlu            0      0.00%     72.22% # Class of committed instruction. (Count)
system.cpu.commitStats0.committedInstType::SimdReduceCmp            0      0.00%     72.22% # Class of committed instruction. (Count)
system.cpu.commitStats0.committedInstType::SimdFloatReduceAdd            0      0.00%     72.22% # Class of committed instruction. (Count)
system.cpu.commitStats0.committedInstType::SimdFloatReduceCmp            0      0.00%     72.22% # Class of committed instruction. (Count)
system.cpu.commitStats0.committedInstType::SimdAes            0      0.00%     72.22% # Class of committed instruction. (Count)
system.cpu.commitStats0.committedInstType::SimdAesMix            0      0.00%     72.22% # Class of committed instruction. (Count)
system.cpu.commitStats0.committedInstType::SimdSha1Hash            0      0.00%     72.22% # Class of committed instruction. (Count)
system.cpu.commitStats0.committedInstType::SimdSha1Hash2            0      0.00%     72.22% # Class of committed instruction. (Count)
system.cpu.commitStats0.committedInstType::SimdSha256Hash            0      0.00%     72.22% # Class of committed instruction. (Count)
system.cpu.commitStats0.committedInstType::SimdSha256Hash2            0      0.00%     72.22% # Class of committed instruction. (Count)
system.cpu.commitStats0.committedInstType::SimdShaSigma2            0      0.00%     72.22% # Class of committed instruction. (Count)
system.cpu.commitStats0.committedInstType::SimdShaSigma3            0      0.00%     72.22% # Class of committed instruction. (Count)
system.cpu.commitStats0.committedInstType::SimdPredAlu            0      0.00%     72.22% # Class of committed instruction. (Count)
system.cpu.commitStats0.committedInstType::Matrix            0      0.00%     72.22% # Class of committed instruction. (Count)
system.cpu.commitStats0.committedInstType::MatrixMov            0      0.00%     72.22% # Class of committed instruction. (Count)
system.cpu.commitStats0.committedInstType::MatrixOP            0      0.00%     72.22% # Class of committed instruction. (Count)
system.cpu.commitStats0.committedInstType::MemRead            5     27.78%    100.00% # Class of committed instruction. (Count)
system.cpu.commitStats0.committedInstType::MemWrite            0      0.00%    100.00% # Class of committed instruction. (Count)
system.cpu.commitStats0.committedInstType::FloatMemRead            0      0.00%    100.00% # Class of committed instruction. (Count)
system.cpu.commitStats0.committedInstType::FloatMemWrite            0      0.00%    100.00% # Class of committed instruction. (Count)
system.cpu.commitStats0.committedInstType::IprAccess            0      0.00%    100.00% # Class of committed instruction. (Count)
system.cpu.commitStats0.committedInstType::InstPrefetch            0      0.00%    100.00% # Class of committed instruction. (Count)
system.cpu.commitStats0.committedInstType::VectorUnitStrideLoad            0      0.00%    100.00% # Class of committed instruction. (Count)
system.cpu.commitStats0.committedInstType::VectorUnitStrideStore            0      0.00%    100.00% # Class of committed instruction. (Count)
system.cpu.commitStats0.committedInstType::VectorUnitStrideMaskLoad            0      0.00%    100.00% # Class of committed instruction. (Count)
system.cpu.commitStats0.committedInstType::VectorUnitStrideMaskStore            0      0.00%    100.00% # Class of committed instruction. (Count)
system.cpu.commitStats0.committedInstType::VectorStridedLoad            0      0.00%    100.00% # Class of committed instruction. (Count)
system.cpu.commitStats0.committedInstType::VectorStridedStore            0      0.00%    100.00% # Class of committed instruction. (Count)
system.cpu.commitStats0.committedInstType::VectorIndexedLoad            0      0.00%    100.00% # Class of committed instruction. (Count)
system.cpu.commitStats0.committedInstType::VectorIndexedStore            0      0.00%    100.00% # Class of committed instruction. (Count)
system.cpu.commitStats0.committedInstType::VectorUnitStrideFaultOnlyFirstLoad            0      0.00%    100.00% # Class of committed instruction. (Count)
system.cpu.commitStats0.committedInstType::VectorWholeRegisterLoad            0      0.00%    100.00% # Class of committed instruction. (Count)
system.cpu.commitStats0.committedInstType::VectorWholeRegisterStore            0      0.00%    100.00% # Class of committed instruction. (Count)
system.cpu.commitStats0.committedInstType::VectorIntegerArith            0      0.00%    100.00% # Class of committed instruction. (Count)
system.cpu.commitStats0.committedInstType::VectorFloatArith            0      0.00%    100.00% # Class of committed instruction. (Count)
system.cpu.commitStats0.committedInstType::VectorFloatConvert            0      0.00%    100.00% # Class of committed instruction. (Count)
system.cpu.commitStats0.committedInstType::VectorIntegerReduce            0      0.00%    100.00% # Class of committed instruction. (Count)
system.cpu.commitStats0.committedInstType::VectorFloatReduce            0      0.00%    100.00% # Class of committed instruction. (Count)
system.cpu.commitStats0.committedInstType::VectorMisc            0      0.00%    100.00% # Class of committed instruction. (Count)
system.cpu.commitStats0.committedInstType::VectorIntegerExtension            0      0.00%    100.00% # Class of committed instruction. (Count)
system.cpu.commitStats0.committedInstType::VectorConfig            0      0.00%    100.00% # Class of committed instruction. (Count)
system.cpu.commitStats0.committedInstType::total           18                       # Class of committed instruction. (Count)
system.cpu.commitStats0.committedControl::IsControl            2                       # Class of control type instructions committed (Count)
system.cpu.commitStats0.committedControl::IsDirectControl            1                       # Class of control type instructions committed (Count)
system.cpu.commitStats0.committedControl::IsIndirectControl            1                       # Class of control type instructions committed (Count)
system.cpu.commitStats0.committedControl::IsCondControl            1                       # Class of control type instructions committed (Count)
system.cpu.commitStats0.committedControl::IsUncondControl            1                       # Class of control type instructions committed (Count)
system.cpu.commitStats0.committedControl::IsReturn            1                       # Class of control type instructions committed (Count)
system.cpu.dcache.demandHits::cpu.data              2                       # number of demand (read+write) hits (Count)
system.cpu.dcache.demandHits::switch_cpus.data     68078962                       # number of demand (read+write) hits (Count)
system.cpu.dcache.demandHits::total          68078964                       # number of demand (read+write) hits (Count)
system.cpu.dcache.overallHits::cpu.data             2                       # number of overall hits (Count)
system.cpu.dcache.overallHits::switch_cpus.data     68080397                       # number of overall hits (Count)
system.cpu.dcache.overallHits::total         68080399                       # number of overall hits (Count)
system.cpu.dcache.demandMisses::cpu.data            3                       # number of demand (read+write) misses (Count)
system.cpu.dcache.demandMisses::switch_cpus.data      8440178                       # number of demand (read+write) misses (Count)
system.cpu.dcache.demandMisses::total         8440181                       # number of demand (read+write) misses (Count)
system.cpu.dcache.overallMisses::cpu.data            3                       # number of overall misses (Count)
system.cpu.dcache.overallMisses::switch_cpus.data      8440948                       # number of overall misses (Count)
system.cpu.dcache.overallMisses::total        8440951                       # number of overall misses (Count)
system.cpu.dcache.demandMissLatency::switch_cpus.data 465769066674                       # number of demand (read+write) miss ticks (Tick)
system.cpu.dcache.demandMissLatency::total 465769066674                       # number of demand (read+write) miss ticks (Tick)
system.cpu.dcache.overallMissLatency::switch_cpus.data 465769066674                       # number of overall miss ticks (Tick)
system.cpu.dcache.overallMissLatency::total 465769066674                       # number of overall miss ticks (Tick)
system.cpu.dcache.demandAccesses::cpu.data            5                       # number of demand (read+write) accesses (Count)
system.cpu.dcache.demandAccesses::switch_cpus.data     76519140                       # number of demand (read+write) accesses (Count)
system.cpu.dcache.demandAccesses::total      76519145                       # number of demand (read+write) accesses (Count)
system.cpu.dcache.overallAccesses::cpu.data            5                       # number of overall (read+write) accesses (Count)
system.cpu.dcache.overallAccesses::switch_cpus.data     76521345                       # number of overall (read+write) accesses (Count)
system.cpu.dcache.overallAccesses::total     76521350                       # number of overall (read+write) accesses (Count)
system.cpu.dcache.demandMissRate::cpu.data     0.600000                       # miss rate for demand accesses (Ratio)
system.cpu.dcache.demandMissRate::switch_cpus.data     0.110302                       # miss rate for demand accesses (Ratio)
system.cpu.dcache.demandMissRate::total      0.110302                       # miss rate for demand accesses (Ratio)
system.cpu.dcache.overallMissRate::cpu.data     0.600000                       # miss rate for overall accesses (Ratio)
system.cpu.dcache.overallMissRate::switch_cpus.data     0.110308                       # miss rate for overall accesses (Ratio)
system.cpu.dcache.overallMissRate::total     0.110308                       # miss rate for overall accesses (Ratio)
system.cpu.dcache.demandAvgMissLatency::switch_cpus.data 55184.744525                       # average overall miss latency in ticks ((Tick/Count))
system.cpu.dcache.demandAvgMissLatency::total 55184.724910                       # average overall miss latency in ticks ((Tick/Count))
system.cpu.dcache.overallAvgMissLatency::switch_cpus.data 55179.710463                       # average overall miss latency ((Tick/Count))
system.cpu.dcache.overallAvgMissLatency::total 55179.690852                       # average overall miss latency ((Tick/Count))
system.cpu.dcache.blockedCycles::no_mshrs     23943138                       # number of cycles access was blocked (Cycle)
system.cpu.dcache.blockedCycles::no_targets         7819                       # number of cycles access was blocked (Cycle)
system.cpu.dcache.blockedCauses::no_mshrs       454000                       # number of times access was blocked (Count)
system.cpu.dcache.blockedCauses::no_targets           76                       # number of times access was blocked (Count)
system.cpu.dcache.avgBlocked::no_mshrs      52.738189                       # average number of cycles each access was blocked ((Cycle/Count))
system.cpu.dcache.avgBlocked::no_targets   102.881579                       # average number of cycles each access was blocked ((Cycle/Count))
system.cpu.dcache.writebacks::writebacks      1556423                       # number of writebacks (Count)
system.cpu.dcache.writebacks::total           1556423                       # number of writebacks (Count)
system.cpu.dcache.demandMshrHits::switch_cpus.data      5588351                       # number of demand (read+write) MSHR hits (Count)
system.cpu.dcache.demandMshrHits::total       5588351                       # number of demand (read+write) MSHR hits (Count)
system.cpu.dcache.overallMshrHits::switch_cpus.data      5588351                       # number of overall MSHR hits (Count)
system.cpu.dcache.overallMshrHits::total      5588351                       # number of overall MSHR hits (Count)
system.cpu.dcache.demandMshrMisses::switch_cpus.data      2851827                       # number of demand (read+write) MSHR misses (Count)
system.cpu.dcache.demandMshrMisses::total      2851827                       # number of demand (read+write) MSHR misses (Count)
system.cpu.dcache.overallMshrMisses::switch_cpus.data      2852583                       # number of overall MSHR misses (Count)
system.cpu.dcache.overallMshrMisses::total      2852583                       # number of overall MSHR misses (Count)
system.cpu.dcache.overallMshrUncacheable::switch_cpus.data        10071                       # number of overall MSHR uncacheable misses (Count)
system.cpu.dcache.overallMshrUncacheable::total        10071                       # number of overall MSHR uncacheable misses (Count)
system.cpu.dcache.demandMshrMissLatency::switch_cpus.data 185203433179                       # number of demand (read+write) MSHR miss ticks (Tick)
system.cpu.dcache.demandMshrMissLatency::total 185203433179                       # number of demand (read+write) MSHR miss ticks (Tick)
system.cpu.dcache.overallMshrMissLatency::switch_cpus.data 185261027679                       # number of overall MSHR miss ticks (Tick)
system.cpu.dcache.overallMshrMissLatency::total 185261027679                       # number of overall MSHR miss ticks (Tick)
system.cpu.dcache.overallMshrUncacheableLatency::switch_cpus.data   1489809500                       # number of overall MSHR uncacheable ticks (Tick)
system.cpu.dcache.overallMshrUncacheableLatency::total   1489809500                       # number of overall MSHR uncacheable ticks (Tick)
system.cpu.dcache.demandMshrMissRate::switch_cpus.data     0.037269                       # mshr miss ratio for demand accesses (Ratio)
system.cpu.dcache.demandMshrMissRate::total     0.037269                       # mshr miss ratio for demand accesses (Ratio)
system.cpu.dcache.overallMshrMissRate::switch_cpus.data     0.037278                       # mshr miss ratio for overall accesses (Ratio)
system.cpu.dcache.overallMshrMissRate::total     0.037278                       # mshr miss ratio for overall accesses (Ratio)
system.cpu.dcache.demandAvgMshrMissLatency::switch_cpus.data 64942.029506                       # average overall mshr miss latency ((Tick/Count))
system.cpu.dcache.demandAvgMshrMissLatency::total 64942.029506                       # average overall mshr miss latency ((Tick/Count))
system.cpu.dcache.overallAvgMshrMissLatency::switch_cpus.data 64945.008674                       # average overall mshr miss latency ((Tick/Count))
system.cpu.dcache.overallAvgMshrMissLatency::total 64945.008674                       # average overall mshr miss latency ((Tick/Count))
system.cpu.dcache.overallAvgMshrUncacheableLatency::switch_cpus.data 147930.642439                       # average overall mshr uncacheable latency ((Tick/Count))
system.cpu.dcache.overallAvgMshrUncacheableLatency::total 147930.642439                       # average overall mshr uncacheable latency ((Tick/Count))
system.cpu.dcache.replacements                2850739                       # number of replacements (Count)
system.cpu.dcache.LockedRMWReadReq.hits::switch_cpus.data         4019                       # number of LockedRMWReadReq hits (Count)
system.cpu.dcache.LockedRMWReadReq.hits::total         4019                       # number of LockedRMWReadReq hits (Count)
system.cpu.dcache.LockedRMWReadReq.misses::switch_cpus.data          177                       # number of LockedRMWReadReq misses (Count)
system.cpu.dcache.LockedRMWReadReq.misses::total          177                       # number of LockedRMWReadReq misses (Count)
system.cpu.dcache.LockedRMWReadReq.missLatency::switch_cpus.data      2636000                       # number of LockedRMWReadReq miss ticks (Tick)
system.cpu.dcache.LockedRMWReadReq.missLatency::total      2636000                       # number of LockedRMWReadReq miss ticks (Tick)
system.cpu.dcache.LockedRMWReadReq.accesses::switch_cpus.data         4196                       # number of LockedRMWReadReq accesses(hits+misses) (Count)
system.cpu.dcache.LockedRMWReadReq.accesses::total         4196                       # number of LockedRMWReadReq accesses(hits+misses) (Count)
system.cpu.dcache.LockedRMWReadReq.missRate::switch_cpus.data     0.042183                       # miss rate for LockedRMWReadReq accesses (Ratio)
system.cpu.dcache.LockedRMWReadReq.missRate::total     0.042183                       # miss rate for LockedRMWReadReq accesses (Ratio)
system.cpu.dcache.LockedRMWReadReq.avgMissLatency::switch_cpus.data 14892.655367                       # average LockedRMWReadReq miss latency ((Tick/Count))
system.cpu.dcache.LockedRMWReadReq.avgMissLatency::total 14892.655367                       # average LockedRMWReadReq miss latency ((Tick/Count))
system.cpu.dcache.LockedRMWReadReq.mshrMisses::switch_cpus.data          177                       # number of LockedRMWReadReq MSHR misses (Count)
system.cpu.dcache.LockedRMWReadReq.mshrMisses::total          177                       # number of LockedRMWReadReq MSHR misses (Count)
system.cpu.dcache.LockedRMWReadReq.mshrMissLatency::switch_cpus.data     21345500                       # number of LockedRMWReadReq MSHR miss ticks (Tick)
system.cpu.dcache.LockedRMWReadReq.mshrMissLatency::total     21345500                       # number of LockedRMWReadReq MSHR miss ticks (Tick)
system.cpu.dcache.LockedRMWReadReq.mshrMissRate::switch_cpus.data     0.042183                       # mshr miss rate for LockedRMWReadReq accesses (Ratio)
system.cpu.dcache.LockedRMWReadReq.mshrMissRate::total     0.042183                       # mshr miss rate for LockedRMWReadReq accesses (Ratio)
system.cpu.dcache.LockedRMWReadReq.avgMshrMissLatency::switch_cpus.data 120596.045198                       # average LockedRMWReadReq mshr miss latency ((Tick/Count))
system.cpu.dcache.LockedRMWReadReq.avgMshrMissLatency::total 120596.045198                       # average LockedRMWReadReq mshr miss latency ((Tick/Count))
system.cpu.dcache.LockedRMWWriteReq.hits::switch_cpus.data         4196                       # number of LockedRMWWriteReq hits (Count)
system.cpu.dcache.LockedRMWWriteReq.hits::total         4196                       # number of LockedRMWWriteReq hits (Count)
system.cpu.dcache.LockedRMWWriteReq.accesses::switch_cpus.data         4196                       # number of LockedRMWWriteReq accesses(hits+misses) (Count)
system.cpu.dcache.LockedRMWWriteReq.accesses::total         4196                       # number of LockedRMWWriteReq accesses(hits+misses) (Count)
system.cpu.dcache.ReadReq.hits::cpu.data            2                       # number of ReadReq hits (Count)
system.cpu.dcache.ReadReq.hits::switch_cpus.data     46368280                       # number of ReadReq hits (Count)
system.cpu.dcache.ReadReq.hits::total        46368282                       # number of ReadReq hits (Count)
system.cpu.dcache.ReadReq.misses::cpu.data            3                       # number of ReadReq misses (Count)
system.cpu.dcache.ReadReq.misses::switch_cpus.data      7435700                       # number of ReadReq misses (Count)
system.cpu.dcache.ReadReq.misses::total       7435703                       # number of ReadReq misses (Count)
system.cpu.dcache.ReadReq.missLatency::switch_cpus.data 403898879000                       # number of ReadReq miss ticks (Tick)
system.cpu.dcache.ReadReq.missLatency::total 403898879000                       # number of ReadReq miss ticks (Tick)
system.cpu.dcache.ReadReq.accesses::cpu.data            5                       # number of ReadReq accesses(hits+misses) (Count)
system.cpu.dcache.ReadReq.accesses::switch_cpus.data     53803980                       # number of ReadReq accesses(hits+misses) (Count)
system.cpu.dcache.ReadReq.accesses::total     53803985                       # number of ReadReq accesses(hits+misses) (Count)
system.cpu.dcache.ReadReq.missRate::cpu.data     0.600000                       # miss rate for ReadReq accesses (Ratio)
system.cpu.dcache.ReadReq.missRate::switch_cpus.data     0.138200                       # miss rate for ReadReq accesses (Ratio)
system.cpu.dcache.ReadReq.missRate::total     0.138200                       # miss rate for ReadReq accesses (Ratio)
system.cpu.dcache.ReadReq.avgMissLatency::switch_cpus.data 54318.877712                       # average ReadReq miss latency ((Tick/Count))
system.cpu.dcache.ReadReq.avgMissLatency::total 54318.855796                       # average ReadReq miss latency ((Tick/Count))
system.cpu.dcache.ReadReq.mshrHits::switch_cpus.data      5587622                       # number of ReadReq MSHR hits (Count)
system.cpu.dcache.ReadReq.mshrHits::total      5587622                       # number of ReadReq MSHR hits (Count)
system.cpu.dcache.ReadReq.mshrMisses::switch_cpus.data      1848078                       # number of ReadReq MSHR misses (Count)
system.cpu.dcache.ReadReq.mshrMisses::total      1848078                       # number of ReadReq MSHR misses (Count)
system.cpu.dcache.ReadReq.mshrUncacheable::switch_cpus.data         6883                       # number of ReadReq MSHR uncacheable (Count)
system.cpu.dcache.ReadReq.mshrUncacheable::total         6883                       # number of ReadReq MSHR uncacheable (Count)
system.cpu.dcache.ReadReq.mshrMissLatency::switch_cpus.data 124372410500                       # number of ReadReq MSHR miss ticks (Tick)
system.cpu.dcache.ReadReq.mshrMissLatency::total 124372410500                       # number of ReadReq MSHR miss ticks (Tick)
system.cpu.dcache.ReadReq.mshrUncacheableLatency::switch_cpus.data   1489809500                       # number of ReadReq MSHR uncacheable ticks (Tick)
system.cpu.dcache.ReadReq.mshrUncacheableLatency::total   1489809500                       # number of ReadReq MSHR uncacheable ticks (Tick)
system.cpu.dcache.ReadReq.mshrMissRate::switch_cpus.data     0.034348                       # mshr miss rate for ReadReq accesses (Ratio)
system.cpu.dcache.ReadReq.mshrMissRate::total     0.034348                       # mshr miss rate for ReadReq accesses (Ratio)
system.cpu.dcache.ReadReq.avgMshrMissLatency::switch_cpus.data 67298.247422                       # average ReadReq mshr miss latency ((Tick/Count))
system.cpu.dcache.ReadReq.avgMshrMissLatency::total 67298.247422                       # average ReadReq mshr miss latency ((Tick/Count))
system.cpu.dcache.ReadReq.avgMshrUncacheableLatency::switch_cpus.data 216447.697225                       # average ReadReq mshr uncacheable latency ((Tick/Count))
system.cpu.dcache.ReadReq.avgMshrUncacheableLatency::total 216447.697225                       # average ReadReq mshr uncacheable latency ((Tick/Count))
system.cpu.dcache.SoftPFReq.hits::switch_cpus.data         1435                       # number of SoftPFReq hits (Count)
system.cpu.dcache.SoftPFReq.hits::total          1435                       # number of SoftPFReq hits (Count)
system.cpu.dcache.SoftPFReq.misses::switch_cpus.data          770                       # number of SoftPFReq misses (Count)
system.cpu.dcache.SoftPFReq.misses::total          770                       # number of SoftPFReq misses (Count)
system.cpu.dcache.SoftPFReq.accesses::switch_cpus.data         2205                       # number of SoftPFReq accesses(hits+misses) (Count)
system.cpu.dcache.SoftPFReq.accesses::total         2205                       # number of SoftPFReq accesses(hits+misses) (Count)
system.cpu.dcache.SoftPFReq.missRate::switch_cpus.data     0.349206                       # miss rate for SoftPFReq accesses (Ratio)
system.cpu.dcache.SoftPFReq.missRate::total     0.349206                       # miss rate for SoftPFReq accesses (Ratio)
system.cpu.dcache.SoftPFReq.mshrMisses::switch_cpus.data          756                       # number of SoftPFReq MSHR misses (Count)
system.cpu.dcache.SoftPFReq.mshrMisses::total          756                       # number of SoftPFReq MSHR misses (Count)
system.cpu.dcache.SoftPFReq.mshrMissLatency::switch_cpus.data     57594500                       # number of SoftPFReq MSHR miss ticks (Tick)
system.cpu.dcache.SoftPFReq.mshrMissLatency::total     57594500                       # number of SoftPFReq MSHR miss ticks (Tick)
system.cpu.dcache.SoftPFReq.mshrMissRate::switch_cpus.data     0.342857                       # mshr miss rate for SoftPFReq accesses (Ratio)
system.cpu.dcache.SoftPFReq.mshrMissRate::total     0.342857                       # mshr miss rate for SoftPFReq accesses (Ratio)
system.cpu.dcache.SoftPFReq.avgMshrMissLatency::switch_cpus.data 76183.201058                       # average SoftPFReq mshr miss latency ((Tick/Count))
system.cpu.dcache.SoftPFReq.avgMshrMissLatency::total 76183.201058                       # average SoftPFReq mshr miss latency ((Tick/Count))
system.cpu.dcache.WriteReq.hits::switch_cpus.data     21710682                       # number of WriteReq hits (Count)
system.cpu.dcache.WriteReq.hits::total       21710682                       # number of WriteReq hits (Count)
system.cpu.dcache.WriteReq.misses::switch_cpus.data      1004478                       # number of WriteReq misses (Count)
system.cpu.dcache.WriteReq.misses::total      1004478                       # number of WriteReq misses (Count)
system.cpu.dcache.WriteReq.missLatency::switch_cpus.data  61870187674                       # number of WriteReq miss ticks (Tick)
system.cpu.dcache.WriteReq.missLatency::total  61870187674                       # number of WriteReq miss ticks (Tick)
system.cpu.dcache.WriteReq.accesses::switch_cpus.data     22715160                       # number of WriteReq accesses(hits+misses) (Count)
system.cpu.dcache.WriteReq.accesses::total     22715160                       # number of WriteReq accesses(hits+misses) (Count)
system.cpu.dcache.WriteReq.missRate::switch_cpus.data     0.044221                       # miss rate for WriteReq accesses (Ratio)
system.cpu.dcache.WriteReq.missRate::total     0.044221                       # miss rate for WriteReq accesses (Ratio)
system.cpu.dcache.WriteReq.avgMissLatency::switch_cpus.data 61594.368094                       # average WriteReq miss latency ((Tick/Count))
system.cpu.dcache.WriteReq.avgMissLatency::total 61594.368094                       # average WriteReq miss latency ((Tick/Count))
system.cpu.dcache.WriteReq.mshrHits::switch_cpus.data          729                       # number of WriteReq MSHR hits (Count)
system.cpu.dcache.WriteReq.mshrHits::total          729                       # number of WriteReq MSHR hits (Count)
system.cpu.dcache.WriteReq.mshrMisses::switch_cpus.data      1003749                       # number of WriteReq MSHR misses (Count)
system.cpu.dcache.WriteReq.mshrMisses::total      1003749                       # number of WriteReq MSHR misses (Count)
system.cpu.dcache.WriteReq.mshrUncacheable::switch_cpus.data         3188                       # number of WriteReq MSHR uncacheable (Count)
system.cpu.dcache.WriteReq.mshrUncacheable::total         3188                       # number of WriteReq MSHR uncacheable (Count)
system.cpu.dcache.WriteReq.mshrMissLatency::switch_cpus.data  60831022679                       # number of WriteReq MSHR miss ticks (Tick)
system.cpu.dcache.WriteReq.mshrMissLatency::total  60831022679                       # number of WriteReq MSHR miss ticks (Tick)
system.cpu.dcache.WriteReq.mshrMissRate::switch_cpus.data     0.044189                       # mshr miss rate for WriteReq accesses (Ratio)
system.cpu.dcache.WriteReq.mshrMissRate::total     0.044189                       # mshr miss rate for WriteReq accesses (Ratio)
system.cpu.dcache.WriteReq.avgMshrMissLatency::switch_cpus.data 60603.818962                       # average WriteReq mshr miss latency ((Tick/Count))
system.cpu.dcache.WriteReq.avgMshrMissLatency::total 60603.818962                       # average WriteReq mshr miss latency ((Tick/Count))
system.cpu.dcache.power_state.pwrStateResidencyTicks::UNDEFINED 6328689602000                       # Cumulative time (in ticks) in various power states (Tick)
system.cpu.dcache.tags.tagsInUse          1022.859407                       # Average ticks per tags in use ((Tick/Count))
system.cpu.dcache.tags.totalRefs             70941401                       # Total number of references to valid blocks. (Count)
system.cpu.dcache.tags.sampledRefs            2851784                       # Sample count of references to valid blocks. (Count)
system.cpu.dcache.tags.avgRefs              24.876148                       # Average number of references to valid blocks. ((Count/Count))
system.cpu.dcache.tags.warmupTick        6166815236500                       # The tick when the warmup percentage was hit. (Tick)
system.cpu.dcache.tags.occupancies::cpu.data     0.003677                       # Average occupied blocks per tick, per requestor ((Count/Tick))
system.cpu.dcache.tags.occupancies::switch_cpus.data  1022.855729                       # Average occupied blocks per tick, per requestor ((Count/Tick))
system.cpu.dcache.tags.avgOccs::cpu.data     0.000004                       # Average percentage of cache occupancy ((Ratio/Tick))
system.cpu.dcache.tags.avgOccs::switch_cpus.data     0.998883                       # Average percentage of cache occupancy ((Ratio/Tick))
system.cpu.dcache.tags.avgOccs::total        0.998886                       # Average percentage of cache occupancy ((Ratio/Tick))
system.cpu.dcache.tags.occupanciesTaskId::1024         1024                       # Occupied blocks per task id (Count)
system.cpu.dcache.tags.ageTaskId_1024::0           40                       # Occupied blocks per task id, per block age (Count)
system.cpu.dcache.tags.ageTaskId_1024::1          368                       # Occupied blocks per task id, per block age (Count)
system.cpu.dcache.tags.ageTaskId_1024::2          605                       # Occupied blocks per task id, per block age (Count)
system.cpu.dcache.tags.ageTaskId_1024::3           11                       # Occupied blocks per task id, per block age (Count)
system.cpu.dcache.tags.ratioOccsTaskId::1024            1                       # Ratio of occupied blocks and all blocks, per task id (Ratio)
system.cpu.dcache.tags.tagAccesses          155911268                       # Number of tag accesses (Count)
system.cpu.dcache.tags.dataAccesses         155911268                       # Number of data accesses (Count)
system.cpu.dcache.tags.power_state.pwrStateResidencyTicks::UNDEFINED 6328689602000                       # Cumulative time (in ticks) in various power states (Tick)
system.cpu.dtb_walker_cache.demandHits::switch_cpus.mmu.dtb.walker       154399                       # number of demand (read+write) hits (Count)
system.cpu.dtb_walker_cache.demandHits::total       154399                       # number of demand (read+write) hits (Count)
system.cpu.dtb_walker_cache.overallHits::switch_cpus.mmu.dtb.walker       154399                       # number of overall hits (Count)
system.cpu.dtb_walker_cache.overallHits::total       154399                       # number of overall hits (Count)
system.cpu.dtb_walker_cache.demandMisses::switch_cpus.mmu.dtb.walker       303417                       # number of demand (read+write) misses (Count)
system.cpu.dtb_walker_cache.demandMisses::total       303417                       # number of demand (read+write) misses (Count)
system.cpu.dtb_walker_cache.overallMisses::switch_cpus.mmu.dtb.walker       303417                       # number of overall misses (Count)
system.cpu.dtb_walker_cache.overallMisses::total       303417                       # number of overall misses (Count)
system.cpu.dtb_walker_cache.demandMissLatency::switch_cpus.mmu.dtb.walker  18135815500                       # number of demand (read+write) miss ticks (Tick)
system.cpu.dtb_walker_cache.demandMissLatency::total  18135815500                       # number of demand (read+write) miss ticks (Tick)
system.cpu.dtb_walker_cache.overallMissLatency::switch_cpus.mmu.dtb.walker  18135815500                       # number of overall miss ticks (Tick)
system.cpu.dtb_walker_cache.overallMissLatency::total  18135815500                       # number of overall miss ticks (Tick)
system.cpu.dtb_walker_cache.demandAccesses::switch_cpus.mmu.dtb.walker       457816                       # number of demand (read+write) accesses (Count)
system.cpu.dtb_walker_cache.demandAccesses::total       457816                       # number of demand (read+write) accesses (Count)
system.cpu.dtb_walker_cache.overallAccesses::switch_cpus.mmu.dtb.walker       457816                       # number of overall (read+write) accesses (Count)
system.cpu.dtb_walker_cache.overallAccesses::total       457816                       # number of overall (read+write) accesses (Count)
system.cpu.dtb_walker_cache.demandMissRate::switch_cpus.mmu.dtb.walker     0.662749                       # miss rate for demand accesses (Ratio)
system.cpu.dtb_walker_cache.demandMissRate::total     0.662749                       # miss rate for demand accesses (Ratio)
system.cpu.dtb_walker_cache.overallMissRate::switch_cpus.mmu.dtb.walker     0.662749                       # miss rate for overall accesses (Ratio)
system.cpu.dtb_walker_cache.overallMissRate::total     0.662749                       # miss rate for overall accesses (Ratio)
system.cpu.dtb_walker_cache.demandAvgMissLatency::switch_cpus.mmu.dtb.walker 59771.916208                       # average overall miss latency in ticks ((Tick/Count))
system.cpu.dtb_walker_cache.demandAvgMissLatency::total 59771.916208                       # average overall miss latency in ticks ((Tick/Count))
system.cpu.dtb_walker_cache.overallAvgMissLatency::switch_cpus.mmu.dtb.walker 59771.916208                       # average overall miss latency ((Tick/Count))
system.cpu.dtb_walker_cache.overallAvgMissLatency::total 59771.916208                       # average overall miss latency ((Tick/Count))
system.cpu.dtb_walker_cache.blockedCycles::no_mshrs            0                       # number of cycles access was blocked (Cycle)
system.cpu.dtb_walker_cache.blockedCycles::no_targets            0                       # number of cycles access was blocked (Cycle)
system.cpu.dtb_walker_cache.blockedCauses::no_mshrs            0                       # number of times access was blocked (Count)
system.cpu.dtb_walker_cache.blockedCauses::no_targets            0                       # number of times access was blocked (Count)
system.cpu.dtb_walker_cache.avgBlocked::no_mshrs          nan                       # average number of cycles each access was blocked ((Cycle/Count))
system.cpu.dtb_walker_cache.avgBlocked::no_targets          nan                       # average number of cycles each access was blocked ((Cycle/Count))
system.cpu.dtb_walker_cache.demandMshrMisses::switch_cpus.mmu.dtb.walker       303417                       # number of demand (read+write) MSHR misses (Count)
system.cpu.dtb_walker_cache.demandMshrMisses::total       303417                       # number of demand (read+write) MSHR misses (Count)
system.cpu.dtb_walker_cache.overallMshrMisses::switch_cpus.mmu.dtb.walker       303417                       # number of overall MSHR misses (Count)
system.cpu.dtb_walker_cache.overallMshrMisses::total       303417                       # number of overall MSHR misses (Count)
system.cpu.dtb_walker_cache.demandMshrMissLatency::switch_cpus.mmu.dtb.walker  17832398500                       # number of demand (read+write) MSHR miss ticks (Tick)
system.cpu.dtb_walker_cache.demandMshrMissLatency::total  17832398500                       # number of demand (read+write) MSHR miss ticks (Tick)
system.cpu.dtb_walker_cache.overallMshrMissLatency::switch_cpus.mmu.dtb.walker  17832398500                       # number of overall MSHR miss ticks (Tick)
system.cpu.dtb_walker_cache.overallMshrMissLatency::total  17832398500                       # number of overall MSHR miss ticks (Tick)
system.cpu.dtb_walker_cache.demandMshrMissRate::switch_cpus.mmu.dtb.walker     0.662749                       # mshr miss ratio for demand accesses (Ratio)
system.cpu.dtb_walker_cache.demandMshrMissRate::total     0.662749                       # mshr miss ratio for demand accesses (Ratio)
system.cpu.dtb_walker_cache.overallMshrMissRate::switch_cpus.mmu.dtb.walker     0.662749                       # mshr miss ratio for overall accesses (Ratio)
system.cpu.dtb_walker_cache.overallMshrMissRate::total     0.662749                       # mshr miss ratio for overall accesses (Ratio)
system.cpu.dtb_walker_cache.demandAvgMshrMissLatency::switch_cpus.mmu.dtb.walker 58771.916208                       # average overall mshr miss latency ((Tick/Count))
system.cpu.dtb_walker_cache.demandAvgMshrMissLatency::total 58771.916208                       # average overall mshr miss latency ((Tick/Count))
system.cpu.dtb_walker_cache.overallAvgMshrMissLatency::switch_cpus.mmu.dtb.walker 58771.916208                       # average overall mshr miss latency ((Tick/Count))
system.cpu.dtb_walker_cache.overallAvgMshrMissLatency::total 58771.916208                       # average overall mshr miss latency ((Tick/Count))
system.cpu.dtb_walker_cache.replacements       302851                       # number of replacements (Count)
system.cpu.dtb_walker_cache.ReadReq.hits::switch_cpus.mmu.dtb.walker       154399                       # number of ReadReq hits (Count)
system.cpu.dtb_walker_cache.ReadReq.hits::total       154399                       # number of ReadReq hits (Count)
system.cpu.dtb_walker_cache.ReadReq.misses::switch_cpus.mmu.dtb.walker       303417                       # number of ReadReq misses (Count)
system.cpu.dtb_walker_cache.ReadReq.misses::total       303417                       # number of ReadReq misses (Count)
system.cpu.dtb_walker_cache.ReadReq.missLatency::switch_cpus.mmu.dtb.walker  18135815500                       # number of ReadReq miss ticks (Tick)
system.cpu.dtb_walker_cache.ReadReq.missLatency::total  18135815500                       # number of ReadReq miss ticks (Tick)
system.cpu.dtb_walker_cache.ReadReq.accesses::switch_cpus.mmu.dtb.walker       457816                       # number of ReadReq accesses(hits+misses) (Count)
system.cpu.dtb_walker_cache.ReadReq.accesses::total       457816                       # number of ReadReq accesses(hits+misses) (Count)
system.cpu.dtb_walker_cache.ReadReq.missRate::switch_cpus.mmu.dtb.walker     0.662749                       # miss rate for ReadReq accesses (Ratio)
system.cpu.dtb_walker_cache.ReadReq.missRate::total     0.662749                       # miss rate for ReadReq accesses (Ratio)
system.cpu.dtb_walker_cache.ReadReq.avgMissLatency::switch_cpus.mmu.dtb.walker 59771.916208                       # average ReadReq miss latency ((Tick/Count))
system.cpu.dtb_walker_cache.ReadReq.avgMissLatency::total 59771.916208                       # average ReadReq miss latency ((Tick/Count))
system.cpu.dtb_walker_cache.ReadReq.mshrMisses::switch_cpus.mmu.dtb.walker       303417                       # number of ReadReq MSHR misses (Count)
system.cpu.dtb_walker_cache.ReadReq.mshrMisses::total       303417                       # number of ReadReq MSHR misses (Count)
system.cpu.dtb_walker_cache.ReadReq.mshrMissLatency::switch_cpus.mmu.dtb.walker  17832398500                       # number of ReadReq MSHR miss ticks (Tick)
system.cpu.dtb_walker_cache.ReadReq.mshrMissLatency::total  17832398500                       # number of ReadReq MSHR miss ticks (Tick)
system.cpu.dtb_walker_cache.ReadReq.mshrMissRate::switch_cpus.mmu.dtb.walker     0.662749                       # mshr miss rate for ReadReq accesses (Ratio)
system.cpu.dtb_walker_cache.ReadReq.mshrMissRate::total     0.662749                       # mshr miss rate for ReadReq accesses (Ratio)
system.cpu.dtb_walker_cache.ReadReq.avgMshrMissLatency::switch_cpus.mmu.dtb.walker 58771.916208                       # average ReadReq mshr miss latency ((Tick/Count))
system.cpu.dtb_walker_cache.ReadReq.avgMshrMissLatency::total 58771.916208                       # average ReadReq mshr miss latency ((Tick/Count))
system.cpu.dtb_walker_cache.power_state.pwrStateResidencyTicks::UNDEFINED 6328689602000                       # Cumulative time (in ticks) in various power states (Tick)
system.cpu.dtb_walker_cache.tags.tagsInUse    15.979266                       # Average ticks per tags in use ((Tick/Count))
system.cpu.dtb_walker_cache.tags.totalRefs       457816                       # Total number of references to valid blocks. (Count)
system.cpu.dtb_walker_cache.tags.sampledRefs       303417                       # Sample count of references to valid blocks. (Count)
system.cpu.dtb_walker_cache.tags.avgRefs     1.508867                       # Average number of references to valid blocks. ((Count/Count))
system.cpu.dtb_walker_cache.tags.warmupTick 6166815593000                       # The tick when the warmup percentage was hit. (Tick)
system.cpu.dtb_walker_cache.tags.occupancies::switch_cpus.mmu.dtb.walker    15.979266                       # Average occupied blocks per tick, per requestor ((Count/Tick))
system.cpu.dtb_walker_cache.tags.avgOccs::switch_cpus.mmu.dtb.walker     0.998704                       # Average percentage of cache occupancy ((Ratio/Tick))
system.cpu.dtb_walker_cache.tags.avgOccs::total     0.998704                       # Average percentage of cache occupancy ((Ratio/Tick))
system.cpu.dtb_walker_cache.tags.occupanciesTaskId::1024           16                       # Occupied blocks per task id (Count)
system.cpu.dtb_walker_cache.tags.ageTaskId_1024::0            7                       # Occupied blocks per task id, per block age (Count)
system.cpu.dtb_walker_cache.tags.ageTaskId_1024::1            9                       # Occupied blocks per task id, per block age (Count)
system.cpu.dtb_walker_cache.tags.ratioOccsTaskId::1024            1                       # Ratio of occupied blocks and all blocks, per task id (Ratio)
system.cpu.dtb_walker_cache.tags.tagAccesses      1219049                       # Number of tag accesses (Count)
system.cpu.dtb_walker_cache.tags.dataAccesses      1219049                       # Number of data accesses (Count)
system.cpu.dtb_walker_cache.tags.power_state.pwrStateResidencyTicks::UNDEFINED 6328689602000                       # Cumulative time (in ticks) in various power states (Tick)
system.cpu.exec_context.thread_0.numMatAluAccesses            0                       # Number of matrix alu accesses (Count)
system.cpu.exec_context.thread_0.numCallsReturns            1                       # Number of times a function call or return occured (Count)
system.cpu.exec_context.thread_0.numMatInsts            0                       # Number of matrix instructions (Count)
system.cpu.exec_context.thread_0.numIdleCycles            0                       # Number of idle cycles (Cycle)
system.cpu.exec_context.thread_0.numBusyCycles           21                       # Number of busy cycles (Cycle)
system.cpu.exec_context.thread_0.notIdleFraction            1                       # Percentage of non-idle cycles (Ratio)
system.cpu.exec_context.thread_0.idleFraction            0                       # Percentage of idle cycles (Ratio)
system.cpu.executeStats0.numInsts                   0                       # Number of executed instructions (Count)
system.cpu.executeStats0.numNop                     0                       # Number of nop insts executed (Count)
system.cpu.executeStats0.numBranches                0                       # Number of branches executed (Count)
system.cpu.executeStats0.numLoadInsts               0                       # Number of load instructions executed (Count)
system.cpu.executeStats0.numStoreInsts              5                       # Number of stores executed (Count)
system.cpu.executeStats0.instRate                   0                       # Inst execution rate ((Count/Cycle))
system.cpu.executeStats0.numFpRegWrites             0                       # Number of times the floating registers were written (Count)
system.cpu.executeStats0.numIntAluAccesses           18                       # Number of integer alu accesses (Count)
system.cpu.executeStats0.numIntRegReads            20                       # Number of times the integer registers were read (Count)
system.cpu.executeStats0.numIntRegWrites           16                       # Number of times the integer registers were written (Count)
system.cpu.executeStats0.numMemRefs                 5                       # Number of memory refs (Count)
system.cpu.executeStats0.numMiscRegReads            8                       # Number of times the Misc registers were read (Count)
system.cpu.executeStats0.numVecAluAccesses            0                       # Number of vector alu accesses (Count)
system.cpu.executeStats0.numDiscardedOps            0                       # Number of ops (including micro ops) which were discarded before commit (Count)
system.cpu.fetchStats0.numInsts                     8                       # Number of instructions fetched (thread level) (Count)
system.cpu.fetchStats0.numOps                      18                       # Number of ops (including micro ops) fetched (thread level) (Count)
system.cpu.fetchStats0.fetchRate             0.380952                       # Number of inst fetches per cycle ((Count/Cycle))
system.cpu.fetchStats0.numBranches                  2                       # Number of branches fetched (Count)
system.cpu.fetchStats0.branchRate            0.095238                       # Number of branch fetches per cycle (Ratio)
system.cpu.fetchStats0.numFetchSuspends             0                       # Number of times Execute suspended instruction fetching (Count)
system.cpu.icache.demandHits::cpu.inst              9                       # number of demand (read+write) hits (Count)
system.cpu.icache.demandHits::switch_cpus.inst     17763359                       # number of demand (read+write) hits (Count)
system.cpu.icache.demandHits::total          17763368                       # number of demand (read+write) hits (Count)
system.cpu.icache.overallHits::cpu.inst             9                       # number of overall hits (Count)
system.cpu.icache.overallHits::switch_cpus.inst     17763359                       # number of overall hits (Count)
system.cpu.icache.overallHits::total         17763368                       # number of overall hits (Count)
system.cpu.icache.demandMisses::cpu.inst            2                       # number of demand (read+write) misses (Count)
system.cpu.icache.demandMisses::switch_cpus.inst       333734                       # number of demand (read+write) misses (Count)
system.cpu.icache.demandMisses::total          333736                       # number of demand (read+write) misses (Count)
system.cpu.icache.overallMisses::cpu.inst            2                       # number of overall misses (Count)
system.cpu.icache.overallMisses::switch_cpus.inst       333734                       # number of overall misses (Count)
system.cpu.icache.overallMisses::total         333736                       # number of overall misses (Count)
system.cpu.icache.demandMissLatency::switch_cpus.inst  21996165473                       # number of demand (read+write) miss ticks (Tick)
system.cpu.icache.demandMissLatency::total  21996165473                       # number of demand (read+write) miss ticks (Tick)
system.cpu.icache.overallMissLatency::switch_cpus.inst  21996165473                       # number of overall miss ticks (Tick)
system.cpu.icache.overallMissLatency::total  21996165473                       # number of overall miss ticks (Tick)
system.cpu.icache.demandAccesses::cpu.inst           11                       # number of demand (read+write) accesses (Count)
system.cpu.icache.demandAccesses::switch_cpus.inst     18097093                       # number of demand (read+write) accesses (Count)
system.cpu.icache.demandAccesses::total      18097104                       # number of demand (read+write) accesses (Count)
system.cpu.icache.overallAccesses::cpu.inst           11                       # number of overall (read+write) accesses (Count)
system.cpu.icache.overallAccesses::switch_cpus.inst     18097093                       # number of overall (read+write) accesses (Count)
system.cpu.icache.overallAccesses::total     18097104                       # number of overall (read+write) accesses (Count)
system.cpu.icache.demandMissRate::cpu.inst     0.181818                       # miss rate for demand accesses (Ratio)
system.cpu.icache.demandMissRate::switch_cpus.inst     0.018441                       # miss rate for demand accesses (Ratio)
system.cpu.icache.demandMissRate::total      0.018441                       # miss rate for demand accesses (Ratio)
system.cpu.icache.overallMissRate::cpu.inst     0.181818                       # miss rate for overall accesses (Ratio)
system.cpu.icache.overallMissRate::switch_cpus.inst     0.018441                       # miss rate for overall accesses (Ratio)
system.cpu.icache.overallMissRate::total     0.018441                       # miss rate for overall accesses (Ratio)
system.cpu.icache.demandAvgMissLatency::switch_cpus.inst 65909.273472                       # average overall miss latency in ticks ((Tick/Count))
system.cpu.icache.demandAvgMissLatency::total 65908.878494                       # average overall miss latency in ticks ((Tick/Count))
system.cpu.icache.overallAvgMissLatency::switch_cpus.inst 65909.273472                       # average overall miss latency ((Tick/Count))
system.cpu.icache.overallAvgMissLatency::total 65908.878494                       # average overall miss latency ((Tick/Count))
system.cpu.icache.blockedCycles::no_mshrs        38107                       # number of cycles access was blocked (Cycle)
system.cpu.icache.blockedCycles::no_targets            0                       # number of cycles access was blocked (Cycle)
system.cpu.icache.blockedCauses::no_mshrs          599                       # number of times access was blocked (Count)
system.cpu.icache.blockedCauses::no_targets            0                       # number of times access was blocked (Count)
system.cpu.icache.avgBlocked::no_mshrs      63.617696                       # average number of cycles each access was blocked ((Cycle/Count))
system.cpu.icache.avgBlocked::no_targets          nan                       # average number of cycles each access was blocked ((Cycle/Count))
system.cpu.icache.writebacks::writebacks       288383                       # number of writebacks (Count)
system.cpu.icache.writebacks::total            288383                       # number of writebacks (Count)
system.cpu.icache.demandMshrHits::switch_cpus.inst        44840                       # number of demand (read+write) MSHR hits (Count)
system.cpu.icache.demandMshrHits::total         44840                       # number of demand (read+write) MSHR hits (Count)
system.cpu.icache.overallMshrHits::switch_cpus.inst        44840                       # number of overall MSHR hits (Count)
system.cpu.icache.overallMshrHits::total        44840                       # number of overall MSHR hits (Count)
system.cpu.icache.demandMshrMisses::switch_cpus.inst       288894                       # number of demand (read+write) MSHR misses (Count)
system.cpu.icache.demandMshrMisses::total       288894                       # number of demand (read+write) MSHR misses (Count)
system.cpu.icache.overallMshrMisses::switch_cpus.inst       288894                       # number of overall MSHR misses (Count)
system.cpu.icache.overallMshrMisses::total       288894                       # number of overall MSHR misses (Count)
system.cpu.icache.demandMshrMissLatency::switch_cpus.inst  19258282487                       # number of demand (read+write) MSHR miss ticks (Tick)
system.cpu.icache.demandMshrMissLatency::total  19258282487                       # number of demand (read+write) MSHR miss ticks (Tick)
system.cpu.icache.overallMshrMissLatency::switch_cpus.inst  19258282487                       # number of overall MSHR miss ticks (Tick)
system.cpu.icache.overallMshrMissLatency::total  19258282487                       # number of overall MSHR miss ticks (Tick)
system.cpu.icache.demandMshrMissRate::switch_cpus.inst     0.015964                       # mshr miss ratio for demand accesses (Ratio)
system.cpu.icache.demandMshrMissRate::total     0.015964                       # mshr miss ratio for demand accesses (Ratio)
system.cpu.icache.overallMshrMissRate::switch_cpus.inst     0.015964                       # mshr miss ratio for overall accesses (Ratio)
system.cpu.icache.overallMshrMissRate::total     0.015964                       # mshr miss ratio for overall accesses (Ratio)
system.cpu.icache.demandAvgMshrMissLatency::switch_cpus.inst 66662.106125                       # average overall mshr miss latency ((Tick/Count))
system.cpu.icache.demandAvgMshrMissLatency::total 66662.106125                       # average overall mshr miss latency ((Tick/Count))
system.cpu.icache.overallAvgMshrMissLatency::switch_cpus.inst 66662.106125                       # average overall mshr miss latency ((Tick/Count))
system.cpu.icache.overallAvgMshrMissLatency::total 66662.106125                       # average overall mshr miss latency ((Tick/Count))
system.cpu.icache.replacements                 288383                       # number of replacements (Count)
system.cpu.icache.ReadReq.hits::cpu.inst            9                       # number of ReadReq hits (Count)
system.cpu.icache.ReadReq.hits::switch_cpus.inst     17763359                       # number of ReadReq hits (Count)
system.cpu.icache.ReadReq.hits::total        17763368                       # number of ReadReq hits (Count)
system.cpu.icache.ReadReq.misses::cpu.inst            2                       # number of ReadReq misses (Count)
system.cpu.icache.ReadReq.misses::switch_cpus.inst       333734                       # number of ReadReq misses (Count)
system.cpu.icache.ReadReq.misses::total        333736                       # number of ReadReq misses (Count)
system.cpu.icache.ReadReq.missLatency::switch_cpus.inst  21996165473                       # number of ReadReq miss ticks (Tick)
system.cpu.icache.ReadReq.missLatency::total  21996165473                       # number of ReadReq miss ticks (Tick)
system.cpu.icache.ReadReq.accesses::cpu.inst           11                       # number of ReadReq accesses(hits+misses) (Count)
system.cpu.icache.ReadReq.accesses::switch_cpus.inst     18097093                       # number of ReadReq accesses(hits+misses) (Count)
system.cpu.icache.ReadReq.accesses::total     18097104                       # number of ReadReq accesses(hits+misses) (Count)
system.cpu.icache.ReadReq.missRate::cpu.inst     0.181818                       # miss rate for ReadReq accesses (Ratio)
system.cpu.icache.ReadReq.missRate::switch_cpus.inst     0.018441                       # miss rate for ReadReq accesses (Ratio)
system.cpu.icache.ReadReq.missRate::total     0.018441                       # miss rate for ReadReq accesses (Ratio)
system.cpu.icache.ReadReq.avgMissLatency::switch_cpus.inst 65909.273472                       # average ReadReq miss latency ((Tick/Count))
system.cpu.icache.ReadReq.avgMissLatency::total 65908.878494                       # average ReadReq miss latency ((Tick/Count))
system.cpu.icache.ReadReq.mshrHits::switch_cpus.inst        44840                       # number of ReadReq MSHR hits (Count)
system.cpu.icache.ReadReq.mshrHits::total        44840                       # number of ReadReq MSHR hits (Count)
system.cpu.icache.ReadReq.mshrMisses::switch_cpus.inst       288894                       # number of ReadReq MSHR misses (Count)
system.cpu.icache.ReadReq.mshrMisses::total       288894                       # number of ReadReq MSHR misses (Count)
system.cpu.icache.ReadReq.mshrMissLatency::switch_cpus.inst  19258282487                       # number of ReadReq MSHR miss ticks (Tick)
system.cpu.icache.ReadReq.mshrMissLatency::total  19258282487                       # number of ReadReq MSHR miss ticks (Tick)
system.cpu.icache.ReadReq.mshrMissRate::switch_cpus.inst     0.015964                       # mshr miss rate for ReadReq accesses (Ratio)
system.cpu.icache.ReadReq.mshrMissRate::total     0.015964                       # mshr miss rate for ReadReq accesses (Ratio)
system.cpu.icache.ReadReq.avgMshrMissLatency::switch_cpus.inst 66662.106125                       # average ReadReq mshr miss latency ((Tick/Count))
system.cpu.icache.ReadReq.avgMshrMissLatency::total 66662.106125                       # average ReadReq mshr miss latency ((Tick/Count))
system.cpu.icache.power_state.pwrStateResidencyTicks::UNDEFINED 6328689602000                       # Cumulative time (in ticks) in various power states (Tick)
system.cpu.icache.tags.tagsInUse           511.819753                       # Average ticks per tags in use ((Tick/Count))
system.cpu.icache.tags.totalRefs             18052263                       # Total number of references to valid blocks. (Count)
system.cpu.icache.tags.sampledRefs             288895                       # Sample count of references to valid blocks. (Count)
system.cpu.icache.tags.avgRefs              62.487281                       # Average number of references to valid blocks. ((Count/Count))
system.cpu.icache.tags.warmupTick        6166815236500                       # The tick when the warmup percentage was hit. (Tick)
system.cpu.icache.tags.occupancies::cpu.inst     0.000589                       # Average occupied blocks per tick, per requestor ((Count/Tick))
system.cpu.icache.tags.occupancies::switch_cpus.inst   511.819164                       # Average occupied blocks per tick, per requestor ((Count/Tick))
system.cpu.icache.tags.avgOccs::cpu.inst     0.000001                       # Average percentage of cache occupancy ((Ratio/Tick))
system.cpu.icache.tags.avgOccs::switch_cpus.inst     0.999647                       # Average percentage of cache occupancy ((Ratio/Tick))
system.cpu.icache.tags.avgOccs::total        0.999648                       # Average percentage of cache occupancy ((Ratio/Tick))
system.cpu.icache.tags.occupanciesTaskId::1024          512                       # Occupied blocks per task id (Count)
system.cpu.icache.tags.ageTaskId_1024::0          114                       # Occupied blocks per task id, per block age (Count)
system.cpu.icache.tags.ageTaskId_1024::1          350                       # Occupied blocks per task id, per block age (Count)
system.cpu.icache.tags.ageTaskId_1024::2           47                       # Occupied blocks per task id, per block age (Count)
system.cpu.icache.tags.ageTaskId_1024::3            1                       # Occupied blocks per task id, per block age (Count)
system.cpu.icache.tags.ratioOccsTaskId::1024            1                       # Ratio of occupied blocks and all blocks, per task id (Ratio)
system.cpu.icache.tags.tagAccesses           36483103                       # Number of tag accesses (Count)
system.cpu.icache.tags.dataAccesses          36483103                       # Number of data accesses (Count)
system.cpu.icache.tags.power_state.pwrStateResidencyTicks::UNDEFINED 6328689602000                       # Cumulative time (in ticks) in various power states (Tick)
system.cpu.interrupts.clk_domain.clock           8000                       # Clock period in ticks (Tick)
system.cpu.itb_walker_cache.demandHits::switch_cpus.mmu.itb.walker        11173                       # number of demand (read+write) hits (Count)
system.cpu.itb_walker_cache.demandHits::total        11173                       # number of demand (read+write) hits (Count)
system.cpu.itb_walker_cache.overallHits::switch_cpus.mmu.itb.walker        11173                       # number of overall hits (Count)
system.cpu.itb_walker_cache.overallHits::total        11173                       # number of overall hits (Count)
system.cpu.itb_walker_cache.demandMisses::switch_cpus.mmu.itb.walker         6189                       # number of demand (read+write) misses (Count)
system.cpu.itb_walker_cache.demandMisses::total         6189                       # number of demand (read+write) misses (Count)
system.cpu.itb_walker_cache.overallMisses::switch_cpus.mmu.itb.walker         6189                       # number of overall misses (Count)
system.cpu.itb_walker_cache.overallMisses::total         6189                       # number of overall misses (Count)
system.cpu.itb_walker_cache.demandMissLatency::switch_cpus.mmu.itb.walker    374994000                       # number of demand (read+write) miss ticks (Tick)
system.cpu.itb_walker_cache.demandMissLatency::total    374994000                       # number of demand (read+write) miss ticks (Tick)
system.cpu.itb_walker_cache.overallMissLatency::switch_cpus.mmu.itb.walker    374994000                       # number of overall miss ticks (Tick)
system.cpu.itb_walker_cache.overallMissLatency::total    374994000                       # number of overall miss ticks (Tick)
system.cpu.itb_walker_cache.demandAccesses::switch_cpus.mmu.itb.walker        17362                       # number of demand (read+write) accesses (Count)
system.cpu.itb_walker_cache.demandAccesses::total        17362                       # number of demand (read+write) accesses (Count)
system.cpu.itb_walker_cache.overallAccesses::switch_cpus.mmu.itb.walker        17362                       # number of overall (read+write) accesses (Count)
system.cpu.itb_walker_cache.overallAccesses::total        17362                       # number of overall (read+write) accesses (Count)
system.cpu.itb_walker_cache.demandMissRate::switch_cpus.mmu.itb.walker     0.356468                       # miss rate for demand accesses (Ratio)
system.cpu.itb_walker_cache.demandMissRate::total     0.356468                       # miss rate for demand accesses (Ratio)
system.cpu.itb_walker_cache.overallMissRate::switch_cpus.mmu.itb.walker     0.356468                       # miss rate for overall accesses (Ratio)
system.cpu.itb_walker_cache.overallMissRate::total     0.356468                       # miss rate for overall accesses (Ratio)
system.cpu.itb_walker_cache.demandAvgMissLatency::switch_cpus.mmu.itb.walker 60590.402327                       # average overall miss latency in ticks ((Tick/Count))
system.cpu.itb_walker_cache.demandAvgMissLatency::total 60590.402327                       # average overall miss latency in ticks ((Tick/Count))
system.cpu.itb_walker_cache.overallAvgMissLatency::switch_cpus.mmu.itb.walker 60590.402327                       # average overall miss latency ((Tick/Count))
system.cpu.itb_walker_cache.overallAvgMissLatency::total 60590.402327                       # average overall miss latency ((Tick/Count))
system.cpu.itb_walker_cache.blockedCycles::no_mshrs            0                       # number of cycles access was blocked (Cycle)
system.cpu.itb_walker_cache.blockedCycles::no_targets            0                       # number of cycles access was blocked (Cycle)
system.cpu.itb_walker_cache.blockedCauses::no_mshrs            0                       # number of times access was blocked (Count)
system.cpu.itb_walker_cache.blockedCauses::no_targets            0                       # number of times access was blocked (Count)
system.cpu.itb_walker_cache.avgBlocked::no_mshrs          nan                       # average number of cycles each access was blocked ((Cycle/Count))
system.cpu.itb_walker_cache.avgBlocked::no_targets          nan                       # average number of cycles each access was blocked ((Cycle/Count))
system.cpu.itb_walker_cache.demandMshrMisses::switch_cpus.mmu.itb.walker         6189                       # number of demand (read+write) MSHR misses (Count)
system.cpu.itb_walker_cache.demandMshrMisses::total         6189                       # number of demand (read+write) MSHR misses (Count)
system.cpu.itb_walker_cache.overallMshrMisses::switch_cpus.mmu.itb.walker         6189                       # number of overall MSHR misses (Count)
system.cpu.itb_walker_cache.overallMshrMisses::total         6189                       # number of overall MSHR misses (Count)
system.cpu.itb_walker_cache.demandMshrMissLatency::switch_cpus.mmu.itb.walker    368805000                       # number of demand (read+write) MSHR miss ticks (Tick)
system.cpu.itb_walker_cache.demandMshrMissLatency::total    368805000                       # number of demand (read+write) MSHR miss ticks (Tick)
system.cpu.itb_walker_cache.overallMshrMissLatency::switch_cpus.mmu.itb.walker    368805000                       # number of overall MSHR miss ticks (Tick)
system.cpu.itb_walker_cache.overallMshrMissLatency::total    368805000                       # number of overall MSHR miss ticks (Tick)
system.cpu.itb_walker_cache.demandMshrMissRate::switch_cpus.mmu.itb.walker     0.356468                       # mshr miss ratio for demand accesses (Ratio)
system.cpu.itb_walker_cache.demandMshrMissRate::total     0.356468                       # mshr miss ratio for demand accesses (Ratio)
system.cpu.itb_walker_cache.overallMshrMissRate::switch_cpus.mmu.itb.walker     0.356468                       # mshr miss ratio for overall accesses (Ratio)
system.cpu.itb_walker_cache.overallMshrMissRate::total     0.356468                       # mshr miss ratio for overall accesses (Ratio)
system.cpu.itb_walker_cache.demandAvgMshrMissLatency::switch_cpus.mmu.itb.walker 59590.402327                       # average overall mshr miss latency ((Tick/Count))
system.cpu.itb_walker_cache.demandAvgMshrMissLatency::total 59590.402327                       # average overall mshr miss latency ((Tick/Count))
system.cpu.itb_walker_cache.overallAvgMshrMissLatency::switch_cpus.mmu.itb.walker 59590.402327                       # average overall mshr miss latency ((Tick/Count))
system.cpu.itb_walker_cache.overallAvgMshrMissLatency::total 59590.402327                       # average overall mshr miss latency ((Tick/Count))
system.cpu.itb_walker_cache.replacements         5802                       # number of replacements (Count)
system.cpu.itb_walker_cache.ReadReq.hits::switch_cpus.mmu.itb.walker        11173                       # number of ReadReq hits (Count)
system.cpu.itb_walker_cache.ReadReq.hits::total        11173                       # number of ReadReq hits (Count)
system.cpu.itb_walker_cache.ReadReq.misses::switch_cpus.mmu.itb.walker         6189                       # number of ReadReq misses (Count)
system.cpu.itb_walker_cache.ReadReq.misses::total         6189                       # number of ReadReq misses (Count)
system.cpu.itb_walker_cache.ReadReq.missLatency::switch_cpus.mmu.itb.walker    374994000                       # number of ReadReq miss ticks (Tick)
system.cpu.itb_walker_cache.ReadReq.missLatency::total    374994000                       # number of ReadReq miss ticks (Tick)
system.cpu.itb_walker_cache.ReadReq.accesses::switch_cpus.mmu.itb.walker        17362                       # number of ReadReq accesses(hits+misses) (Count)
system.cpu.itb_walker_cache.ReadReq.accesses::total        17362                       # number of ReadReq accesses(hits+misses) (Count)
system.cpu.itb_walker_cache.ReadReq.missRate::switch_cpus.mmu.itb.walker     0.356468                       # miss rate for ReadReq accesses (Ratio)
system.cpu.itb_walker_cache.ReadReq.missRate::total     0.356468                       # miss rate for ReadReq accesses (Ratio)
system.cpu.itb_walker_cache.ReadReq.avgMissLatency::switch_cpus.mmu.itb.walker 60590.402327                       # average ReadReq miss latency ((Tick/Count))
system.cpu.itb_walker_cache.ReadReq.avgMissLatency::total 60590.402327                       # average ReadReq miss latency ((Tick/Count))
system.cpu.itb_walker_cache.ReadReq.mshrMisses::switch_cpus.mmu.itb.walker         6189                       # number of ReadReq MSHR misses (Count)
system.cpu.itb_walker_cache.ReadReq.mshrMisses::total         6189                       # number of ReadReq MSHR misses (Count)
system.cpu.itb_walker_cache.ReadReq.mshrMissLatency::switch_cpus.mmu.itb.walker    368805000                       # number of ReadReq MSHR miss ticks (Tick)
system.cpu.itb_walker_cache.ReadReq.mshrMissLatency::total    368805000                       # number of ReadReq MSHR miss ticks (Tick)
system.cpu.itb_walker_cache.ReadReq.mshrMissRate::switch_cpus.mmu.itb.walker     0.356468                       # mshr miss rate for ReadReq accesses (Ratio)
system.cpu.itb_walker_cache.ReadReq.mshrMissRate::total     0.356468                       # mshr miss rate for ReadReq accesses (Ratio)
system.cpu.itb_walker_cache.ReadReq.avgMshrMissLatency::switch_cpus.mmu.itb.walker 59590.402327                       # average ReadReq mshr miss latency ((Tick/Count))
system.cpu.itb_walker_cache.ReadReq.avgMshrMissLatency::total 59590.402327                       # average ReadReq mshr miss latency ((Tick/Count))
system.cpu.itb_walker_cache.power_state.pwrStateResidencyTicks::UNDEFINED 6328689602000                       # Cumulative time (in ticks) in various power states (Tick)
system.cpu.itb_walker_cache.tags.tagsInUse    15.574138                       # Average ticks per tags in use ((Tick/Count))
system.cpu.itb_walker_cache.tags.totalRefs        17362                       # Total number of references to valid blocks. (Count)
system.cpu.itb_walker_cache.tags.sampledRefs         6189                       # Sample count of references to valid blocks. (Count)
system.cpu.itb_walker_cache.tags.avgRefs     2.805300                       # Average number of references to valid blocks. ((Count/Count))
system.cpu.itb_walker_cache.tags.warmupTick 6166815323000                       # The tick when the warmup percentage was hit. (Tick)
system.cpu.itb_walker_cache.tags.occupancies::switch_cpus.mmu.itb.walker    15.574138                       # Average occupied blocks per tick, per requestor ((Count/Tick))
system.cpu.itb_walker_cache.tags.avgOccs::switch_cpus.mmu.itb.walker     0.973384                       # Average percentage of cache occupancy ((Ratio/Tick))
system.cpu.itb_walker_cache.tags.avgOccs::total     0.973384                       # Average percentage of cache occupancy ((Ratio/Tick))
system.cpu.itb_walker_cache.tags.occupanciesTaskId::1024           16                       # Occupied blocks per task id (Count)
system.cpu.itb_walker_cache.tags.ageTaskId_1024::1            8                       # Occupied blocks per task id, per block age (Count)
system.cpu.itb_walker_cache.tags.ageTaskId_1024::2            8                       # Occupied blocks per task id, per block age (Count)
[...]
system.switch_cpus.fetch.nisnDist::stdev     2.455395                       # Number of instructions fetched each cycle (Total) (Count)
system.switch_cpus.fetch.nisnDist::underflows            0      0.00%      0.00% # Number of instructions fetched each cycle (Total) (Count)
system.switch_cpus.fetch.nisnDist::0        253503692     84.57%     84.57% # Number of instructions fetched each cycle (Total) (Count)
system.switch_cpus.fetch.nisnDist::1          3289341      1.10%     85.66% # Number of instructions fetched each cycle (Total) (Count)
system.switch_cpus.fetch.nisnDist::2          2852305      0.95%     86.62% # Number of instructions fetched each cycle (Total) (Count)
system.switch_cpus.fetch.nisnDist::3          2521869      0.84%     87.46% # Number of instructions fetched each cycle (Total) (Count)
system.switch_cpus.fetch.nisnDist::4          3057969      1.02%     88.48% # Number of instructions fetched each cycle (Total) (Count)
system.switch_cpus.fetch.nisnDist::5          2365050      0.79%     89.27% # Number of instructions fetched each cycle (Total) (Count)
system.switch_cpus.fetch.nisnDist::6          2731506      0.91%     90.18% # Number of instructions fetched each cycle (Total) (Count)
system.switch_cpus.fetch.nisnDist::7          2708306      0.90%     91.08% # Number of instructions fetched each cycle (Total) (Count)
system.switch_cpus.fetch.nisnDist::8         26734866      8.92%    100.00% # Number of instructions fetched each cycle (Total) (Count)
system.switch_cpus.fetch.nisnDist::overflows            0      0.00%    100.00% # Number of instructions fetched each cycle (Total) (Count)
system.switch_cpus.fetch.nisnDist::min_value            0                       # Number of instructions fetched each cycle (Total) (Count)
system.switch_cpus.fetch.nisnDist::max_value            8                       # Number of instructions fetched each cycle (Total) (Count)
system.switch_cpus.fetch.nisnDist::total    299764904                       # Number of instructions fetched each cycle (Total) (Count)
system.switch_cpus.fetchStats0.numInsts     177684578                       # Number of instructions fetched (thread level) (Count)
system.switch_cpus.fetchStats0.numOps               0                       # Number of ops (including micro ops) fetched (thread level) (Count)
system.switch_cpus.fetchStats0.fetchRate     0.551458                       # Number of inst fetches per cycle ((Count/Cycle))
system.switch_cpus.fetchStats0.numBranches      6100763                       # Number of branches fetched (Count)
system.switch_cpus.fetchStats0.branchRate     0.018934                       # Number of branch fetches per cycle (Ratio)
system.switch_cpus.fetchStats0.icacheStallCycles     28630012                       # ICache total stall cycles (Cycle)
system.switch_cpus.fetchStats0.numFetchSuspends            0                       # Number of times Execute suspended instruction fetching (Count)
system.switch_cpus.iew.idleCycles                   0                       # Number of cycles IEW is idle (Cycle)
system.switch_cpus.iew.squashCycles            195767                       # Number of cycles IEW is squashing (Cycle)
system.switch_cpus.iew.blockCycles           28816467                       # Number of cycles IEW is blocking (Cycle)
system.switch_cpus.iew.unblockCycles         51262098                       # Number of cycles IEW is unblocking (Cycle)
system.switch_cpus.iew.dispatchedInsts      285587551                       # Number of instructions dispatched to IQ (Count)
system.switch_cpus.iew.dispSquashedInsts        29477                       # Number of squashed instructions skipped by dispatch (Count)
system.switch_cpus.iew.dispLoadInsts         56553762                       # Number of dispatched load instructions (Count)
system.switch_cpus.iew.dispStoreInsts        23070812                       # Number of dispatched store instructions (Count)
system.switch_cpus.iew.dispNonSpecInsts         87215                       # Number of dispatched non-speculative instructions (Count)
system.switch_cpus.iew.iqFullEvents            427967                       # Number of times the IQ has become full, causing a stall (Count)
system.switch_cpus.iew.lsqFullEvents         50433424                       # Number of times the LSQ has become full, causing a stall (Count)
system.switch_cpus.iew.memOrderViolationEvents        32503                       # Number of memory order violations (Count)
system.switch_cpus.iew.predictedTakenIncorrect        52749                       # Number of branches that were predicted taken incorrectly (Count)
system.switch_cpus.iew.predictedNotTakenIncorrect       127146                       # Number of branches that were predicted not taken incorrectly (Count)
system.switch_cpus.iew.branchMispredicts       179895                       # Number of branch mispredicts detected at execute (Count)
system.switch_cpus.iew.instsToCommit        283708465                       # Cumulative count of insts sent to commit (Count)
system.switch_cpus.iew.writebackCount       283642419                       # Cumulative count of insts written-back (Count)
system.switch_cpus.iew.producerInst         188409887                       # Number of instructions producing a value (Count)
system.switch_cpus.iew.consumerInst         305904483                       # Number of instructions consuming a value (Count)
system.switch_cpus.iew.wbRate                0.880307                       # Insts written-back per cycle ((Count/Cycle))
system.switch_cpus.iew.wbFanout              0.615911                       # Average fanout of values written-back ((Count/Count))
system.switch_cpus.lsq0.forwLoads             2510950                       # Number of loads that had data forwarded from stores (Count)
system.switch_cpus.lsq0.squashedLoads          735666                       # Number of loads squashed (Count)
system.switch_cpus.lsq0.ignoredResponses         3081                       # Number of memory responses ignored because the instruction is squashed (Count)
system.switch_cpus.lsq0.memOrderViolation        32503                       # Number of memory ordering violations (Count)
system.switch_cpus.lsq0.squashedStores         348275                       # Number of stores squashed (Count)
system.switch_cpus.lsq0.rescheduledLoads         3416                       # Number of loads that were rescheduled (Count)
system.switch_cpus.lsq0.blockedByCache         418267                       # Number of times an access to memory failed due to the cache being blocked (Count)
system.switch_cpus.lsq0.loadToUse::samples     55815915                       # Distribution of cycle latency between the first time a load is issued and its completion (Unspecified)
system.switch_cpus.lsq0.loadToUse::mean     24.020275                       # Distribution of cycle latency between the first time a load is issued and its completion (Unspecified)
system.switch_cpus.lsq0.loadToUse::stdev   114.267655                       # Distribution of cycle latency between the first time a load is issued and its completion (Unspecified)
system.switch_cpus.lsq0.loadToUse::0-9       47233020     84.62%     84.62% # Distribution of cycle latency between the first time a load is issued and its completion (Unspecified)
system.switch_cpus.lsq0.loadToUse::10-19       613029      1.10%     85.72% # Distribution of cycle latency between the first time a load is issued and its completion (Unspecified)
system.switch_cpus.lsq0.loadToUse::20-29       330810      0.59%     86.31% # Distribution of cycle latency between the first time a load is issued and its completion (Unspecified)
system.switch_cpus.lsq0.loadToUse::30-39       201719      0.36%     86.68% # Distribution of cycle latency between the first time a load is issued and its completion (Unspecified)
system.switch_cpus.lsq0.loadToUse::40-49       160391      0.29%     86.96% # Distribution of cycle latency between the first time a load is issued and its completion (Unspecified)
system.switch_cpus.lsq0.loadToUse::50-59       146895      0.26%     87.23% # Distribution of cycle latency between the first time a load is issued and its completion (Unspecified)
system.switch_cpus.lsq0.loadToUse::60-69       160851      0.29%     87.51% # Distribution of cycle latency between the first time a load is issued and its completion (Unspecified)
system.switch_cpus.lsq0.loadToUse::70-79       224839      0.40%     87.92% # Distribution of cycle latency between the first time a load is issued and its completion (Unspecified)
system.switch_cpus.lsq0.loadToUse::80-89       370771      0.66%     88.58% # Distribution of cycle latency between the first time a load is issued and its completion (Unspecified)
system.switch_cpus.lsq0.loadToUse::90-99       599415      1.07%     89.65% # Distribution of cycle latency between the first time a load is issued and its completion (Unspecified)
system.switch_cpus.lsq0.loadToUse::100-109      1611132      2.89%     92.54% # Distribution of cycle latency between the first time a load is issued and its completion (Unspecified)
system.switch_cpus.lsq0.loadToUse::110-119      1290889      2.31%     94.85% # Distribution of cycle latency between the first time a load is issued and its completion (Unspecified)
system.switch_cpus.lsq0.loadToUse::120-129       485402      0.87%     95.72% # Distribution of cycle latency between the first time a load is issued and its completion (Unspecified)
system.switch_cpus.lsq0.loadToUse::130-139       367453      0.66%     96.38% # Distribution of cycle latency between the first time a load is issued and its completion (Unspecified)
system.switch_cpus.lsq0.loadToUse::140-149       206139      0.37%     96.75% # Distribution of cycle latency between the first time a load is issued and its completion (Unspecified)
system.switch_cpus.lsq0.loadToUse::150-159       184635      0.33%     97.08% # Distribution of cycle latency between the first time a load is issued and its completion (Unspecified)
system.switch_cpus.lsq0.loadToUse::160-169       305397      0.55%     97.63% # Distribution of cycle latency between the first time a load is issued and its completion (Unspecified)
system.switch_cpus.lsq0.loadToUse::170-179       164710      0.30%     97.92% # Distribution of cycle latency between the first time a load is issued and its completion (Unspecified)
system.switch_cpus.lsq0.loadToUse::180-189       101718      0.18%     98.11% # Distribution of cycle latency between the first time a load is issued and its completion (Unspecified)
system.switch_cpus.lsq0.loadToUse::190-199        90002      0.16%     98.27% # Distribution of cycle latency between the first time a load is issued and its completion (Unspecified)
system.switch_cpus.lsq0.loadToUse::200-209       103171      0.18%     98.45% # Distribution of cycle latency between the first time a load is issued and its completion (Unspecified)
system.switch_cpus.lsq0.loadToUse::210-219        71146      0.13%     98.58% # Distribution of cycle latency between the first time a load is issued and its completion (Unspecified)
system.switch_cpus.lsq0.loadToUse::220-229        60378      0.11%     98.69% # Distribution of cycle latency between the first time a load is issued and its completion (Unspecified)
system.switch_cpus.lsq0.loadToUse::230-239        62449      0.11%     98.80% # Distribution of cycle latency between the first time a load is issued and its completion (Unspecified)
system.switch_cpus.lsq0.loadToUse::240-249        62529      0.11%     98.91% # Distribution of cycle latency between the first time a load is issued and its completion (Unspecified)
system.switch_cpus.lsq0.loadToUse::250-259        69362      0.12%     99.04% # Distribution of cycle latency between the first time a load is issued and its completion (Unspecified)
system.switch_cpus.lsq0.loadToUse::260-269        64912      0.12%     99.15% # Distribution of cycle latency between the first time a load is issued and its completion (Unspecified)
system.switch_cpus.lsq0.loadToUse::270-279        56117      0.10%     99.25% # Distribution of cycle latency between the first time a load is issued and its completion (Unspecified)
system.switch_cpus.lsq0.loadToUse::280-289        47172      0.08%     99.34% # Distribution of cycle latency between the first time a load is issued and its completion (Unspecified)
system.switch_cpus.lsq0.loadToUse::290-299        41515      0.07%     99.41% # Distribution of cycle latency between the first time a load is issued and its completion (Unspecified)
system.switch_cpus.lsq0.loadToUse::overflows       327947      0.59%    100.00% # Distribution of cycle latency between the first time a load is issued and its completion (Unspecified)
system.switch_cpus.lsq0.loadToUse::min_value            2                       # Distribution of cycle latency between the first time a load is issued and its completion (Unspecified)
system.switch_cpus.lsq0.loadToUse::max_value        10521                       # Distribution of cycle latency between the first time a load is issued and its completion (Unspecified)
system.switch_cpus.lsq0.loadToUse::total     55815915                       # Distribution of cycle latency between the first time a load is issued and its completion (Unspecified)
system.switch_cpus.mmu.dtb.rdAccesses        56423516                       # TLB accesses on read requests (Count)
system.switch_cpus.mmu.dtb.wrAccesses        22951155                       # TLB accesses on write requests (Count)
system.switch_cpus.mmu.dtb.rdMisses             93719                       # TLB misses on read requests (Count)
system.switch_cpus.mmu.dtb.wrMisses             39939                       # TLB misses on write requests (Count)
system.switch_cpus.mmu.dtb.walker.power_state.pwrStateResidencyTicks::UNDEFINED 6328689602000                       # Cumulative time (in ticks) in various power states (Tick)
system.switch_cpus.mmu.itb.rdAccesses               0                       # TLB accesses on read requests (Count)
system.switch_cpus.mmu.itb.wrAccesses        18109784                       # TLB accesses on write requests (Count)
system.switch_cpus.mmu.itb.rdMisses                 0                       # TLB misses on read requests (Count)
system.switch_cpus.mmu.itb.wrMisses              6669                       # TLB misses on write requests (Count)
system.switch_cpus.mmu.itb.walker.power_state.pwrStateResidencyTicks::UNDEFINED 6328689602000                       # Cumulative time (in ticks) in various power states (Tick)
system.switch_cpus.power_state.numTransitions           18                       # Number of power state transitions (Count)
system.switch_cpus.power_state.ticksClkGated::samples            9                       # Distribution of time spent in the clock gated state (Tick)
system.switch_cpus.power_state.ticksClkGated::mean 85564611.111111                       # Distribution of time spent in the clock gated state (Tick)
system.switch_cpus.power_state.ticksClkGated::stdev 223909716.082004                       # Distribution of time spent in the clock gated state (Tick)
system.switch_cpus.power_state.ticksClkGated::1000-5e+10            9    100.00%    100.00% # Distribution of time spent in the clock gated state (Tick)
system.switch_cpus.power_state.ticksClkGated::min_value      2730000                       # Distribution of time spent in the clock gated state (Tick)
system.switch_cpus.power_state.ticksClkGated::max_value    681832500                       # Distribution of time spent in the clock gated state (Tick)
system.switch_cpus.power_state.ticksClkGated::total            9                       # Distribution of time spent in the clock gated state (Tick)
system.switch_cpus.power_state.pwrStateResidencyTicks::ON 151012445500                       # Cumulative time (in ticks) in various power states (Tick)
system.switch_cpus.power_state.pwrStateResidencyTicks::CLK_GATED    770081500                       # Cumulative time (in ticks) in various power states (Tick)
system.switch_cpus.power_state.pwrStateResidencyTicks::OFF  10091839250                       # Cumulative time (in ticks) in various power states (Tick)
system.switch_cpus.rename.squashCycles         195767                       # Number of cycles rename is squashing (Cycle)
system.switch_cpus.rename.idleCycles         25529989                       # Number of cycles rename is idle (Cycle)
system.switch_cpus.rename.blockCycles        90063075                       # Number of cycles rename is blocking (Cycle)
system.switch_cpus.rename.serializeStallCycles      8813536                       # count of cycles rename stalled for serializing inst (Cycle)
system.switch_cpus.rename.runCycles          36020252                       # Number of cycles rename is running (Cycle)
system.switch_cpus.rename.unblockCycles     139142277                       # Number of cycles rename is unblocking (Cycle)
system.switch_cpus.rename.renamedInsts      286319256                       # Number of instructions processed by rename (Count)
system.switch_cpus.rename.ROBFullEvents       1041566                       # Number of times rename has blocked due to ROB full (Count)
system.switch_cpus.rename.IQFullEvents        8974437                       # Number of times rename has blocked due to IQ full (Count)
system.switch_cpus.rename.LQFullEvents       43065441                       # Number of times rename has blocked due to LQ full (Count)
system.switch_cpus.rename.SQFullEvents       88894880                       # Number of times rename has blocked due to SQ full (Count)
system.switch_cpus.rename.fullRegistersEvents            2                       # Number of times there has been no free registers (Count)
system.switch_cpus.rename.renamedOperands    310483188                       # Number of destination operands rename has renamed (Count)
system.switch_cpus.rename.lookups           760814728                       # Number of register rename lookups that rename has made (Count)
system.switch_cpus.rename.intLookups        139287621                       # Number of integer rename lookups (Count)
system.switch_cpus.rename.fpLookups         377573282                       # Number of floating rename lookups (Count)
system.switch_cpus.rename.committedMaps     301459961                       # Number of HB maps that are committed (Count)
system.switch_cpus.rename.undoneMaps          9023154                       # Number of HB maps that are undone due to squashing (Count)
system.switch_cpus.rename.serializing          130133                       # count of serializing insts renamed (Count)
system.switch_cpus.rename.tempSerializing       103797                       # count of temporary serializing insts renamed (Count)
system.switch_cpus.rename.skidInsts          52158716                       # count of insts added to the skid buffer (Count)
system.switch_cpus.rob.reads                565226108                       # The number of ROB reads (Count)
system.switch_cpus.rob.writes               571928664                       # The number of ROB writes (Count)
system.switch_cpus.thread_0.numInsts        173207555                       # Number of Instructions committed (Count)
system.switch_cpus.thread_0.numOps          280433744                       # Number of Ops committed (Count)
system.switch_cpus.thread_0.numMemRefs              0                       # Number of Memory References (Count)
system.voltage_domain.voltage                       1                       # Voltage in Volts (Volt)
system.workload.inst.arm                            0                       # number of arm instructions executed (Count)
system.workload.inst.quiesce                        0                       # number of quiesce instructions executed (Count)

---------- End Simulation Statistics   ----------
