
---------- Begin Simulation Statistics ----------
simSeconds                                   0.297467                       # Number of seconds simulated (Second)
simTicks                                 297466575000                       # Number of ticks simulated (Tick)
finalTick                                4993096376000                       # Number of ticks from beginning of simulation (restored from checkpoints and never reset) (Tick)
simFreq                                  1000000000000                       # The number of ticks per simulated second ((Tick/Second))
hostSeconds                                   1920.67                       # Real time elapsed on the host (Second)
hostTickRate                                154876075                       # The number of ticks simulated per host second (ticks/s) ((Tick/Second))
hostMemory                                    1644664                       # Number of bytes of host memory used (Byte)
simInsts                                    578954344                       # Number of instructions simulated (Count)
simOps                                      995981495                       # Number of ops (including micro ops) simulated (Count)
hostInstRate                                   301433                       # Simulator instruction rate (inst/s) ((Count/Second))
hostOpRate                                     518558                       # Simulator op (including micro ops) rate (op/s) ((Count/Second))
system.apicbridge.power_state.pwrStateResidencyTicks::UNDEFINED 4993096376000                       # Cumulative time (in ticks) in various power states (Tick)
system.bridge.power_state.pwrStateResidencyTicks::UNDEFINED 4993096376000                       # Cumulative time (in ticks) in various power states (Tick)
system.clk_domain.clock                          1000                       # Clock period in ticks (Tick)
system.cpu0.numCycles                              22                       # Number of cpu cycles simulated (Cycle)
system.cpu0.cpi                              2.750000                       # CPI: cycles per instruction (core level) ((Cycle/Count))
system.cpu0.ipc                              0.363636                       # IPC: instructions per cycle (core level) ((Count/Cycle))
system.cpu0.numWorkItemsStarted                     0                       # Number of work items this cpu started (Count)
system.cpu0.numWorkItemsCompleted                   0                       # Number of work items this cpu completed (Count)
system.cpu0.commitStats0.numInsts                   8                       # Number of instructions committed (thread level) (Count)
system.cpu0.commitStats0.numOps                    19                       # Number of ops (including micro ops) committed (thread level) (Count)
system.cpu0.commitStats0.numInstsNotNOP             0                       # Number of instructions committed excluding NOPs or prefetches (Count)
system.cpu0.commitStats0.numOpsNotNOP               0                       # Number of Ops (including micro ops) Simulated (Count)
system.cpu0.commitStats0.cpi                 2.750000                       # CPI: cycles per instruction (thread level) ((Cycle/Count))
system.cpu0.commitStats0.ipc                 0.363636                       # IPC: instructions per cycle (thread level) ((Count/Cycle))
system.cpu0.commitStats0.numMemRefs                 0                       # Number of memory references committed (Count)
system.cpu0.commitStats0.numFpInsts                 0                       # Number of float instructions (Count)
system.cpu0.commitStats0.numIntInsts               19                       # Number of integer instructions (Count)
system.cpu0.commitStats0.numLoadInsts               3                       # Number of load instructions (Count)
system.cpu0.commitStats0.numStoreInsts              0                       # Number of store instructions (Count)
system.cpu0.commitStats0.numVecInsts                0                       # Number of vector instructions (Count)
system.cpu0.commitStats0.committedInstType::No_OpClass            0      0.00%      0.00% # Class of committed instruction. (Count)
system.cpu0.commitStats0.committedInstType::IntAlu           16     84.21%     84.21% # Class of committed instruction. (Count)
system.cpu0.commitStats0.committedInstType::IntMult            0      0.00%     84.21% # Class of committed instruction. (Count)
system.cpu0.commitStats0.committedInstType::ZeroMult            0      0.00%     84.21% # Class of committed instruction. (Count)
system.cpu0.commitStats0.committedInstType::IntDiv            0      0.00%     84.21% # Class of committed instruction. (Count)
system.cpu0.commitStats0.committedInstType::FloatAdd            0      0.00%     84.21% # Class of committed instruction. (Count)
system.cpu0.commitStats0.committedInstType::FloatCmp            0      0.00%     84.21% # Class of committed instruction. (Count)
system.cpu0.commitStats0.committedInstType::FloatCvt            0      0.00%     84.21% # Class of committed instruction. (Count)
system.cpu0.commitStats0.committedInstType::FloatMult            0      0.00%     84.21% # Class of committed instruction. (Count)
system.cpu0.commitStats0.committedInstType::FloatMultAcc            0      0.00%     84.21% # Class of committed instruction. (Count)
system.cpu0.commitStats0.committedInstType::FloatDiv            0      0.00%     84.21% # Class of committed instruction. (Count)
system.cpu0.commitStats0.committedInstType::FloatMisc            0      0.00%     84.21% # Class of committed instruction. (Count)
system.cpu0.commitStats0.committedInstType::FloatSqrt            0      0.00%     84.21% # Class of committed instruction. (Count)
system.cpu0.commitStats0.committedInstType::SimdAdd            0      0.00%     84.21% # Class of committed instruction. (Count)
system.cpu0.commitStats0.committedInstType::SimdAddAcc            0      0.00%     84.21% # Class of committed instruction. (Count)
system.cpu0.commitStats0.committedInstType::SimdAlu            0      0.00%     84.21% # Class of committed instruction. (Count)
system.cpu0.commitStats0.committedInstType::SimdCmp            0      0.00%     84.21% # Class of committed instruction. (Count)
system.cpu0.commitStats0.committedInstType::SimdCvt            0      0.00%     84.21% # Class of committed instruction. (Count)
system.cpu0.commitStats0.committedInstType::SimdMisc            0      0.00%     84.21% # Class of committed instruction. (Count)
system.cpu0.commitStats0.committedInstType::SimdMult            0      0.00%     84.21% # Class of committed instruction. (Count)
system.cpu0.commitStats0.committedInstType::SimdMultAcc            0      0.00%     84.21% # Class of committed instruction. (Count)
system.cpu0.commitStats0.committedInstType::SimdMatMultAcc            0      0.00%     84.21% # Class of committed instruction. (Count)
system.cpu0.commitStats0.committedInstType::SimdShift            0      0.00%     84.21% # Class of committed instruction. (Count)
system.cpu0.commitStats0.committedInstType::SimdShiftAcc            0      0.00%     84.21% # Class of committed instruction. (Count)
system.cpu0.commitStats0.committedInstType::SimdDiv            0      0.00%     84.21% # Class of committed instruction. (Count)
system.cpu0.commitStats0.committedInstType::SimdSqrt            0      0.00%     84.21% # Class of committed instruction. (Count)
system.cpu0.commitStats0.committedInstType::SimdFloatAdd            0      0.00%     84.21% # Class of committed instruction. (Count)
system.cpu0.commitStats0.committedInstType::SimdFloatAlu            0      0.00%     84.21% # Class of committed instruction. (Count)
system.cpu0.commitStats0.committedInstType::SimdFloatCmp            0      0.00%     84.21% # Class of committed instruction. (Count)
system.cpu0.commitStats0.committedInstType::SimdFloatCvt            0      0.00%     84.21% # Class of committed instruction. (Count)
system.cpu0.commitStats0.committedInstType::SimdFloatDiv            0      0.00%     84.21% # Class of committed instruction. (Count)
system.cpu0.commitStats0.committedInstType::SimdFloatMisc            0      0.00%     84.21% # Class of committed instruction. (Count)
system.cpu0.commitStats0.committedInstType::SimdFloatMult            0      0.00%     84.21% # Class of committed instruction. (Count)
system.cpu0.commitStats0.committedInstType::SimdFloatMultAcc            0      0.00%     84.21% # Class of committed instruction. (Count)
system.cpu0.commitStats0.committedInstType::SimdFloatMatMultAcc            0      0.00%     84.21% # Class of committed instruction. (Count)
system.cpu0.commitStats0.committedInstType::SimdFloatSqrt            0      0.00%     84.21% # Class of committed instruction. (Count)
system.cpu0.commitStats0.committedInstType::SimdReduceAdd            0      0.00%     84.21% # Class of committed instruction. (Count)
system.cpu0.commitStats0.committedInstType::SimdReduceAlu            0      0.00%     84.21% # Class of committed instruction. (Count)
system.cpu0.commitStats0.committedInstType::SimdReduceCmp            0      0.00%     84.21% # Class of committed instruction. (Count)
system.cpu0.commitStats0.committedInstType::SimdFloatReduceAdd            0      0.00%     84.21% # Class of committed instruction. (Count)
system.cpu0.commitStats0.committedInstType::SimdFloatReduceCmp            0      0.00%     84.21% # Class of committed instruction. (Count)
system.cpu0.commitStats0.committedInstType::SimdAes            0      0.00%     84.21% # Class of committed instruction. (Count)
system.cpu0.commitStats0.committedInstType::SimdAesMix            0      0.00%     84.21% # Class of committed instruction. (Count)
system.cpu0.commitStats0.committedInstType::SimdSha1Hash            0      0.00%     84.21% # Class of committed instruction. (Count)
system.cpu0.commitStats0.committedInstType::SimdSha1Hash2            0      0.00%     84.21% # Class of committed instruction. (Count)
system.cpu0.commitStats0.committedInstType::SimdSha256Hash            0      0.00%     84.21% # Class of committed instruction. (Count)
system.cpu0.commitStats0.committedInstType::SimdSha256Hash2            0      0.00%     84.21% # Class of committed instruction. (Count)
system.cpu0.commitStats0.committedInstType::SimdShaSigma2            0      0.00%     84.21% # Class of committed instruction. (Count)
system.cpu0.commitStats0.committedInstType::SimdShaSigma3            0      0.00%     84.21% # Class of committed instruction. (Count)
system.cpu0.commitStats0.committedInstType::SimdPredAlu            0      0.00%     84.21% # Class of committed instruction. (Count)
system.cpu0.commitStats0.committedInstType::Matrix            0      0.00%     84.21% # Class of committed instruction. (Count)
system.cpu0.commitStats0.committedInstType::MatrixMov            0      0.00%     84.21% # Class of committed instruction. (Count)
system.cpu0.commitStats0.committedInstType::MatrixOP            0      0.00%     84.21% # Class of committed instruction. (Count)
system.cpu0.commitStats0.committedInstType::MemRead            3     15.79%    100.00% # Class of committed instruction. (Count)
system.cpu0.commitStats0.committedInstType::MemWrite            0      0.00%    100.00% # Class of committed instruction. (Count)
system.cpu0.commitStats0.committedInstType::FloatMemRead            0      0.00%    100.00% # Class of committed instruction. (Count)
system.cpu0.commitStats0.committedInstType::FloatMemWrite            0      0.00%    100.00% # Class of committed instruction. (Count)
system.cpu0.commitStats0.committedInstType::IprAccess            0      0.00%    100.00% # Class of committed instruction. (Count)
system.cpu0.commitStats0.committedInstType::InstPrefetch            0      0.00%    100.00% # Class of committed instruction. (Count)
system.cpu0.commitStats0.committedInstType::VectorUnitStrideLoad            0      0.00%    100.00% # Class of committed instruction. (Count)
system.cpu0.commitStats0.committedInstType::VectorUnitStrideStore            0      0.00%    100.00% # Class of committed instruction. (Count)
system.cpu0.commitStats0.committedInstType::VectorUnitStrideMaskLoad            0      0.00%    100.00% # Class of committed instruction. (Count)
system.cpu0.commitStats0.committedInstType::VectorUnitStrideMaskStore            0      0.00%    100.00% # Class of committed instruction. (Count)
system.cpu0.commitStats0.committedInstType::VectorStridedLoad            0      0.00%    100.00% # Class of committed instruction. (Count)
system.cpu0.commitStats0.committedInstType::VectorStridedStore            0      0.00%    100.00% # Class of committed instruction. (Count)
system.cpu0.commitStats0.committedInstType::VectorIndexedLoad            0      0.00%    100.00% # Class of committed instruction. (Count)
system.cpu0.commitStats0.committedInstType::VectorIndexedStore            0      0.00%    100.00% # Class of committed instruction. (Count)
system.cpu0.commitStats0.committedInstType::VectorUnitStrideFaultOnlyFirstLoad            0      0.00%    100.00% # Class of committed instruction. (Count)
system.cpu0.commitStats0.committedInstType::VectorWholeRegisterLoad            0      0.00%    100.00% # Class of committed instruction. (Count)
system.cpu0.commitStats0.committedInstType::VectorWholeRegisterStore            0      0.00%    100.00% # Class of committed instruction. (Count)
system.cpu0.commitStats0.committedInstType::VectorIntegerArith            0      0.00%    100.00% # Class of committed instruction. (Count)
system.cpu0.commitStats0.committedInstType::VectorFloatArith            0      0.00%    100.00% # Class of committed instruction. (Count)
system.cpu0.commitStats0.committedInstType::VectorFloatConvert            0      0.00%    100.00% # Class of committed instruction. (Count)
system.cpu0.commitStats0.committedInstType::VectorIntegerReduce            0      0.00%    100.00% # Class of committed instruction. (Count)
system.cpu0.commitStats0.committedInstType::VectorFloatReduce            0      0.00%    100.00% # Class of committed instruction. (Count)
system.cpu0.commitStats0.committedInstType::VectorMisc            0      0.00%    100.00% # Class of committed instruction. (Count)
system.cpu0.commitStats0.committedInstType::VectorIntegerExtension            0      0.00%    100.00% # Class of committed instruction. (Count)
system.cpu0.commitStats0.committedInstType::VectorConfig            0      0.00%    100.00% # Class of committed instruction. (Count)
system.cpu0.commitStats0.committedInstType::total           19                       # Class of committed instruction. (Count)
system.cpu0.commitStats0.committedControl::IsControl            4                       # Class of control type instructions committed (Count)
system.cpu0.commitStats0.committedControl::IsDirectControl            3                       # Class of control type instructions committed (Count)
system.cpu0.commitStats0.committedControl::IsIndirectControl            1                       # Class of control type instructions committed (Count)
system.cpu0.commitStats0.committedControl::IsCondControl            1                       # Class of control type instructions committed (Count)
system.cpu0.commitStats0.committedControl::IsUncondControl            3                       # Class of control type instructions committed (Count)
system.cpu0.commitStats0.committedControl::IsReturn            1                       # Class of control type instructions committed (Count)
system.cpu0.dcache.demandHits::switch_cpus0.data     30985616                       # number of demand (read+write) hits (Count)
system.cpu0.dcache.demandHits::total         30985616                       # number of demand (read+write) hits (Count)
system.cpu0.dcache.overallHits::switch_cpus0.data     30985724                       # number of overall hits (Count)
system.cpu0.dcache.overallHits::total        30985724                       # number of overall hits (Count)
system.cpu0.dcache.demandMisses::cpu0.data            3                       # number of demand (read+write) misses (Count)
system.cpu0.dcache.demandMisses::switch_cpus0.data      3217241                       # number of demand (read+write) misses (Count)
system.cpu0.dcache.demandMisses::total        3217244                       # number of demand (read+write) misses (Count)
system.cpu0.dcache.overallMisses::cpu0.data            3                       # number of overall misses (Count)
system.cpu0.dcache.overallMisses::switch_cpus0.data      3217713                       # number of overall misses (Count)
system.cpu0.dcache.overallMisses::total       3217716                       # number of overall misses (Count)
system.cpu0.dcache.demandMissLatency::switch_cpus0.data 201878954943                       # number of demand (read+write) miss ticks (Tick)
system.cpu0.dcache.demandMissLatency::total 201878954943                       # number of demand (read+write) miss ticks (Tick)
system.cpu0.dcache.overallMissLatency::switch_cpus0.data 201878954943                       # number of overall miss ticks (Tick)
system.cpu0.dcache.overallMissLatency::total 201878954943                       # number of overall miss ticks (Tick)
system.cpu0.dcache.demandAccesses::cpu0.data            3                       # number of demand (read+write) accesses (Count)
system.cpu0.dcache.demandAccesses::switch_cpus0.data     34202857                       # number of demand (read+write) accesses (Count)
system.cpu0.dcache.demandAccesses::total     34202860                       # number of demand (read+write) accesses (Count)
system.cpu0.dcache.overallAccesses::cpu0.data            3                       # number of overall (read+write) accesses (Count)
system.cpu0.dcache.overallAccesses::switch_cpus0.data     34203437                       # number of overall (read+write) accesses (Count)
system.cpu0.dcache.overallAccesses::total     34203440                       # number of overall (read+write) accesses (Count)
system.cpu0.dcache.demandMissRate::cpu0.data            1                       # miss rate for demand accesses (Ratio)
system.cpu0.dcache.demandMissRate::switch_cpus0.data     0.094064                       # miss rate for demand accesses (Ratio)
system.cpu0.dcache.demandMissRate::total     0.094064                       # miss rate for demand accesses (Ratio)
system.cpu0.dcache.overallMissRate::cpu0.data            1                       # miss rate for overall accesses (Ratio)
system.cpu0.dcache.overallMissRate::switch_cpus0.data     0.094076                       # miss rate for overall accesses (Ratio)
system.cpu0.dcache.overallMissRate::total     0.094076                       # miss rate for overall accesses (Ratio)
system.cpu0.dcache.demandAvgMissLatency::switch_cpus0.data 62749.093072                       # average overall miss latency in ticks ((Tick/Count))
system.cpu0.dcache.demandAvgMissLatency::total 62749.034560                       # average overall miss latency in ticks ((Tick/Count))
system.cpu0.dcache.overallAvgMissLatency::switch_cpus0.data 62739.888530                       # average overall miss latency ((Tick/Count))
system.cpu0.dcache.overallAvgMissLatency::total 62739.830036                       # average overall miss latency ((Tick/Count))
system.cpu0.dcache.blockedCycles::no_mshrs       356926                       # number of cycles access was blocked (Cycle)
system.cpu0.dcache.blockedCycles::no_targets      1239335                       # number of cycles access was blocked (Cycle)
system.cpu0.dcache.blockedCauses::no_mshrs         5658                       # number of times access was blocked (Count)
system.cpu0.dcache.blockedCauses::no_targets        17440                       # number of times access was blocked (Count)
system.cpu0.dcache.avgBlocked::no_mshrs     63.083422                       # average number of cycles each access was blocked ((Cycle/Count))
system.cpu0.dcache.avgBlocked::no_targets    71.062787                       # average number of cycles each access was blocked ((Cycle/Count))
system.cpu0.dcache.writebacks::writebacks       110136                       # number of writebacks (Count)
system.cpu0.dcache.writebacks::total           110136                       # number of writebacks (Count)
system.cpu0.dcache.demandMshrHits::switch_cpus0.data      2626367                       # number of demand (read+write) MSHR hits (Count)
system.cpu0.dcache.demandMshrHits::total      2626367                       # number of demand (read+write) MSHR hits (Count)
system.cpu0.dcache.overallMshrHits::switch_cpus0.data      2626367                       # number of overall MSHR hits (Count)
system.cpu0.dcache.overallMshrHits::total      2626367                       # number of overall MSHR hits (Count)
system.cpu0.dcache.demandMshrMisses::switch_cpus0.data       590874                       # number of demand (read+write) MSHR misses (Count)
system.cpu0.dcache.demandMshrMisses::total       590874                       # number of demand (read+write) MSHR misses (Count)
system.cpu0.dcache.overallMshrMisses::switch_cpus0.data       591345                       # number of overall MSHR misses (Count)
system.cpu0.dcache.overallMshrMisses::total       591345                       # number of overall MSHR misses (Count)
system.cpu0.dcache.overallMshrUncacheable::switch_cpus0.data          340                       # number of overall MSHR uncacheable misses (Count)
system.cpu0.dcache.overallMshrUncacheable::total          340                       # number of overall MSHR uncacheable misses (Count)
system.cpu0.dcache.demandMshrMissLatency::switch_cpus0.data  42419286419                       # number of demand (read+write) MSHR miss ticks (Tick)
system.cpu0.dcache.demandMshrMissLatency::total  42419286419                       # number of demand (read+write) MSHR miss ticks (Tick)
system.cpu0.dcache.overallMshrMissLatency::switch_cpus0.data  42446233419                       # number of overall MSHR miss ticks (Tick)
system.cpu0.dcache.overallMshrMissLatency::total  42446233419                       # number of overall MSHR miss ticks (Tick)
system.cpu0.dcache.overallMshrUncacheableLatency::switch_cpus0.data      1110500                       # number of overall MSHR uncacheable ticks (Tick)
system.cpu0.dcache.overallMshrUncacheableLatency::total      1110500                       # number of overall MSHR uncacheable ticks (Tick)
system.cpu0.dcache.demandMshrMissRate::switch_cpus0.data     0.017276                       # mshr miss ratio for demand accesses (Ratio)
system.cpu0.dcache.demandMshrMissRate::total     0.017276                       # mshr miss ratio for demand accesses (Ratio)
system.cpu0.dcache.overallMshrMissRate::switch_cpus0.data     0.017289                       # mshr miss ratio for overall accesses (Ratio)
system.cpu0.dcache.overallMshrMissRate::total     0.017289                       # mshr miss ratio for overall accesses (Ratio)
system.cpu0.dcache.demandAvgMshrMissLatency::switch_cpus0.data 71790.747975                       # average overall mshr miss latency ((Tick/Count))
system.cpu0.dcache.demandAvgMshrMissLatency::total 71790.747975                       # average overall mshr miss latency ((Tick/Count))
system.cpu0.dcache.overallAvgMshrMissLatency::switch_cpus0.data 71779.136408                       # average overall mshr miss latency ((Tick/Count))
system.cpu0.dcache.overallAvgMshrMissLatency::total 71779.136408                       # average overall mshr miss latency ((Tick/Count))
system.cpu0.dcache.overallAvgMshrUncacheableLatency::switch_cpus0.data  3266.176471                       # average overall mshr uncacheable latency ((Tick/Count))
system.cpu0.dcache.overallAvgMshrUncacheableLatency::total  3266.176471                       # average overall mshr uncacheable latency ((Tick/Count))
system.cpu0.dcache.replacements                556465                       # number of replacements (Count)
system.cpu0.dcache.LockedRMWReadReq.hits::switch_cpus0.data        37333                       # number of LockedRMWReadReq hits (Count)
system.cpu0.dcache.LockedRMWReadReq.hits::total        37333                       # number of LockedRMWReadReq hits (Count)
system.cpu0.dcache.LockedRMWReadReq.misses::switch_cpus0.data       102125                       # number of LockedRMWReadReq misses (Count)
system.cpu0.dcache.LockedRMWReadReq.misses::total       102125                       # number of LockedRMWReadReq misses (Count)
system.cpu0.dcache.LockedRMWReadReq.missLatency::switch_cpus0.data   2002833500                       # number of LockedRMWReadReq miss ticks (Tick)
system.cpu0.dcache.LockedRMWReadReq.missLatency::total   2002833500                       # number of LockedRMWReadReq miss ticks (Tick)
system.cpu0.dcache.LockedRMWReadReq.accesses::switch_cpus0.data       139458                       # number of LockedRMWReadReq accesses(hits+misses) (Count)
system.cpu0.dcache.LockedRMWReadReq.accesses::total       139458                       # number of LockedRMWReadReq accesses(hits+misses) (Count)
system.cpu0.dcache.LockedRMWReadReq.missRate::switch_cpus0.data     0.732299                       # miss rate for LockedRMWReadReq accesses (Ratio)
system.cpu0.dcache.LockedRMWReadReq.missRate::total     0.732299                       # miss rate for LockedRMWReadReq accesses (Ratio)
system.cpu0.dcache.LockedRMWReadReq.avgMissLatency::switch_cpus0.data 19611.588739                       # average LockedRMWReadReq miss latency ((Tick/Count))
system.cpu0.dcache.LockedRMWReadReq.avgMissLatency::total 19611.588739                       # average LockedRMWReadReq miss latency ((Tick/Count))
system.cpu0.dcache.LockedRMWReadReq.mshrHits::switch_cpus0.data            2                       # number of LockedRMWReadReq MSHR hits (Count)
system.cpu0.dcache.LockedRMWReadReq.mshrHits::total            2                       # number of LockedRMWReadReq MSHR hits (Count)
system.cpu0.dcache.LockedRMWReadReq.mshrMisses::switch_cpus0.data       102123                       # number of LockedRMWReadReq MSHR misses (Count)
system.cpu0.dcache.LockedRMWReadReq.mshrMisses::total       102123                       # number of LockedRMWReadReq MSHR misses (Count)
system.cpu0.dcache.LockedRMWReadReq.mshrMissLatency::switch_cpus0.data   4361928500                       # number of LockedRMWReadReq MSHR miss ticks (Tick)
system.cpu0.dcache.LockedRMWReadReq.mshrMissLatency::total   4361928500                       # number of LockedRMWReadReq MSHR miss ticks (Tick)
system.cpu0.dcache.LockedRMWReadReq.mshrMissRate::switch_cpus0.data     0.732285                       # mshr miss rate for LockedRMWReadReq accesses (Ratio)
system.cpu0.dcache.LockedRMWReadReq.mshrMissRate::total     0.732285                       # mshr miss rate for LockedRMWReadReq accesses (Ratio)
system.cpu0.dcache.LockedRMWReadReq.avgMshrMissLatency::switch_cpus0.data 42712.498654                       # average LockedRMWReadReq mshr miss latency ((Tick/Count))
system.cpu0.dcache.LockedRMWReadReq.avgMshrMissLatency::total 42712.498654                       # average LockedRMWReadReq mshr miss latency ((Tick/Count))
system.cpu0.dcache.LockedRMWWriteReq.hits::switch_cpus0.data       139458                       # number of LockedRMWWriteReq hits (Count)
system.cpu0.dcache.LockedRMWWriteReq.hits::total       139458                       # number of LockedRMWWriteReq hits (Count)
system.cpu0.dcache.LockedRMWWriteReq.accesses::switch_cpus0.data       139458                       # number of LockedRMWWriteReq accesses(hits+misses) (Count)
system.cpu0.dcache.LockedRMWWriteReq.accesses::total       139458                       # number of LockedRMWWriteReq accesses(hits+misses) (Count)
system.cpu0.dcache.ReadReq.hits::switch_cpus0.data     27392155                       # number of ReadReq hits (Count)
system.cpu0.dcache.ReadReq.hits::total       27392155                       # number of ReadReq hits (Count)
system.cpu0.dcache.ReadReq.misses::cpu0.data            3                       # number of ReadReq misses (Count)
system.cpu0.dcache.ReadReq.misses::switch_cpus0.data      3098388                       # number of ReadReq misses (Count)
system.cpu0.dcache.ReadReq.misses::total      3098391                       # number of ReadReq misses (Count)
system.cpu0.dcache.ReadReq.missLatency::switch_cpus0.data 194929124500                       # number of ReadReq miss ticks (Tick)
system.cpu0.dcache.ReadReq.missLatency::total 194929124500                       # number of ReadReq miss ticks (Tick)
system.cpu0.dcache.ReadReq.accesses::cpu0.data            3                       # number of ReadReq accesses(hits+misses) (Count)
system.cpu0.dcache.ReadReq.accesses::switch_cpus0.data     30490543                       # number of ReadReq accesses(hits+misses) (Count)
system.cpu0.dcache.ReadReq.accesses::total     30490546                       # number of ReadReq accesses(hits+misses) (Count)
system.cpu0.dcache.ReadReq.missRate::cpu0.data            1                       # miss rate for ReadReq accesses (Ratio)
system.cpu0.dcache.ReadReq.missRate::switch_cpus0.data     0.101618                       # miss rate for ReadReq accesses (Ratio)
system.cpu0.dcache.ReadReq.missRate::total     0.101618                       # miss rate for ReadReq accesses (Ratio)
system.cpu0.dcache.ReadReq.avgMissLatency::switch_cpus0.data 62913.077542                       # average ReadReq miss latency ((Tick/Count))
system.cpu0.dcache.ReadReq.avgMissLatency::total 62913.016627                       # average ReadReq miss latency ((Tick/Count))
system.cpu0.dcache.ReadReq.mshrHits::switch_cpus0.data      2626101                       # number of ReadReq MSHR hits (Count)
system.cpu0.dcache.ReadReq.mshrHits::total      2626101                       # number of ReadReq MSHR hits (Count)
system.cpu0.dcache.ReadReq.mshrMisses::switch_cpus0.data       472287                       # number of ReadReq MSHR misses (Count)
system.cpu0.dcache.ReadReq.mshrMisses::total       472287                       # number of ReadReq MSHR misses (Count)
system.cpu0.dcache.ReadReq.mshrUncacheable::switch_cpus0.data           10                       # number of ReadReq MSHR uncacheable (Count)
system.cpu0.dcache.ReadReq.mshrUncacheable::total           10                       # number of ReadReq MSHR uncacheable (Count)
system.cpu0.dcache.ReadReq.mshrMissLatency::switch_cpus0.data  35603192508                       # number of ReadReq MSHR miss ticks (Tick)
system.cpu0.dcache.ReadReq.mshrMissLatency::total  35603192508                       # number of ReadReq MSHR miss ticks (Tick)
system.cpu0.dcache.ReadReq.mshrUncacheableLatency::switch_cpus0.data      1110500                       # number of ReadReq MSHR uncacheable ticks (Tick)
system.cpu0.dcache.ReadReq.mshrUncacheableLatency::total      1110500                       # number of ReadReq MSHR uncacheable ticks (Tick)
system.cpu0.dcache.ReadReq.mshrMissRate::switch_cpus0.data     0.015490                       # mshr miss rate for ReadReq accesses (Ratio)
system.cpu0.dcache.ReadReq.mshrMissRate::total     0.015490                       # mshr miss rate for ReadReq accesses (Ratio)
system.cpu0.dcache.ReadReq.avgMshrMissLatency::switch_cpus0.data 75384.654898                       # average ReadReq mshr miss latency ((Tick/Count))
system.cpu0.dcache.ReadReq.avgMshrMissLatency::total 75384.654898                       # average ReadReq mshr miss latency ((Tick/Count))
system.cpu0.dcache.ReadReq.avgMshrUncacheableLatency::switch_cpus0.data       111050                       # average ReadReq mshr uncacheable latency ((Tick/Count))
system.cpu0.dcache.ReadReq.avgMshrUncacheableLatency::total       111050                       # average ReadReq mshr uncacheable latency ((Tick/Count))
system.cpu0.dcache.SoftPFReq.hits::switch_cpus0.data          108                       # number of SoftPFReq hits (Count)
system.cpu0.dcache.SoftPFReq.hits::total          108                       # number of SoftPFReq hits (Count)
system.cpu0.dcache.SoftPFReq.misses::switch_cpus0.data          472                       # number of SoftPFReq misses (Count)
system.cpu0.dcache.SoftPFReq.misses::total          472                       # number of SoftPFReq misses (Count)
system.cpu0.dcache.SoftPFReq.accesses::switch_cpus0.data          580                       # number of SoftPFReq accesses(hits+misses) (Count)
system.cpu0.dcache.SoftPFReq.accesses::total          580                       # number of SoftPFReq accesses(hits+misses) (Count)
system.cpu0.dcache.SoftPFReq.missRate::switch_cpus0.data     0.813793                       # miss rate for SoftPFReq accesses (Ratio)
system.cpu0.dcache.SoftPFReq.missRate::total     0.813793                       # miss rate for SoftPFReq accesses (Ratio)
system.cpu0.dcache.SoftPFReq.mshrMisses::switch_cpus0.data          471                       # number of SoftPFReq MSHR misses (Count)
system.cpu0.dcache.SoftPFReq.mshrMisses::total          471                       # number of SoftPFReq MSHR misses (Count)
system.cpu0.dcache.SoftPFReq.mshrMissLatency::switch_cpus0.data     26947000                       # number of SoftPFReq MSHR miss ticks (Tick)
system.cpu0.dcache.SoftPFReq.mshrMissLatency::total     26947000                       # number of SoftPFReq MSHR miss ticks (Tick)
system.cpu0.dcache.SoftPFReq.mshrMissRate::switch_cpus0.data     0.812069                       # mshr miss rate for SoftPFReq accesses (Ratio)
system.cpu0.dcache.SoftPFReq.mshrMissRate::total     0.812069                       # mshr miss rate for SoftPFReq accesses (Ratio)
system.cpu0.dcache.SoftPFReq.avgMshrMissLatency::switch_cpus0.data 57212.314225                       # average SoftPFReq mshr miss latency ((Tick/Count))
system.cpu0.dcache.SoftPFReq.avgMshrMissLatency::total 57212.314225                       # average SoftPFReq mshr miss latency ((Tick/Count))
system.cpu0.dcache.WriteReq.hits::switch_cpus0.data      3593461                       # number of WriteReq hits (Count)
system.cpu0.dcache.WriteReq.hits::total       3593461                       # number of WriteReq hits (Count)
system.cpu0.dcache.WriteReq.misses::switch_cpus0.data       118853                       # number of WriteReq misses (Count)
system.cpu0.dcache.WriteReq.misses::total       118853                       # number of WriteReq misses (Count)
system.cpu0.dcache.WriteReq.missLatency::switch_cpus0.data   6949830443                       # number of WriteReq miss ticks (Tick)
system.cpu0.dcache.WriteReq.missLatency::total   6949830443                       # number of WriteReq miss ticks (Tick)
system.cpu0.dcache.WriteReq.accesses::switch_cpus0.data      3712314                       # number of WriteReq accesses(hits+misses) (Count)
system.cpu0.dcache.WriteReq.accesses::total      3712314                       # number of WriteReq accesses(hits+misses) (Count)
system.cpu0.dcache.WriteReq.missRate::switch_cpus0.data     0.032016                       # miss rate for WriteReq accesses (Ratio)
system.cpu0.dcache.WriteReq.missRate::total     0.032016                       # miss rate for WriteReq accesses (Ratio)
system.cpu0.dcache.WriteReq.avgMissLatency::switch_cpus0.data 58474.169293                       # average WriteReq miss latency ((Tick/Count))
system.cpu0.dcache.WriteReq.avgMissLatency::total 58474.169293                       # average WriteReq miss latency ((Tick/Count))
system.cpu0.dcache.WriteReq.mshrHits::switch_cpus0.data          266                       # number of WriteReq MSHR hits (Count)
system.cpu0.dcache.WriteReq.mshrHits::total          266                       # number of WriteReq MSHR hits (Count)
system.cpu0.dcache.WriteReq.mshrMisses::switch_cpus0.data       118587                       # number of WriteReq MSHR misses (Count)
system.cpu0.dcache.WriteReq.mshrMisses::total       118587                       # number of WriteReq MSHR misses (Count)
system.cpu0.dcache.WriteReq.mshrUncacheable::switch_cpus0.data          330                       # number of WriteReq MSHR uncacheable (Count)
system.cpu0.dcache.WriteReq.mshrUncacheable::total          330                       # number of WriteReq MSHR uncacheable (Count)
system.cpu0.dcache.WriteReq.mshrMissLatency::switch_cpus0.data   6816093911                       # number of WriteReq MSHR miss ticks (Tick)
system.cpu0.dcache.WriteReq.mshrMissLatency::total   6816093911                       # number of WriteReq MSHR miss ticks (Tick)
system.cpu0.dcache.WriteReq.mshrMissRate::switch_cpus0.data     0.031944                       # mshr miss rate for WriteReq accesses (Ratio)
system.cpu0.dcache.WriteReq.mshrMissRate::total     0.031944                       # mshr miss rate for WriteReq accesses (Ratio)
system.cpu0.dcache.WriteReq.avgMshrMissLatency::switch_cpus0.data 57477.581109                       # average WriteReq mshr miss latency ((Tick/Count))
system.cpu0.dcache.WriteReq.avgMshrMissLatency::total 57477.581109                       # average WriteReq mshr miss latency ((Tick/Count))
system.cpu0.dcache.power_state.pwrStateResidencyTicks::UNDEFINED 4993096376000                       # Cumulative time (in ticks) in various power states (Tick)
system.cpu0.dcache.tags.tagsInUse          888.916458                       # Average ticks per tags in use ((Tick/Count))
system.cpu0.dcache.tags.totalRefs            31856089                       # Total number of references to valid blocks. (Count)
system.cpu0.dcache.tags.sampledRefs            690476                       # Sample count of references to valid blocks. (Count)
system.cpu0.dcache.tags.avgRefs             46.136417                       # Average number of references to valid blocks. ((Count/Count))
system.cpu0.dcache.tags.warmupTick       4695629803500                       # The tick when the warmup percentage was hit. (Tick)
system.cpu0.dcache.tags.occupancies::cpu0.data     0.562299                       # Average occupied blocks per tick, per requestor ((Count/Tick))
system.cpu0.dcache.tags.occupancies::switch_cpus0.data   888.354158                       # Average occupied blocks per tick, per requestor ((Count/Tick))
system.cpu0.dcache.tags.avgOccs::cpu0.data     0.000549                       # Average percentage of cache occupancy ((Ratio/Tick))
system.cpu0.dcache.tags.avgOccs::switch_cpus0.data     0.867533                       # Average percentage of cache occupancy ((Ratio/Tick))
system.cpu0.dcache.tags.avgOccs::total       0.868082                       # Average percentage of cache occupancy ((Ratio/Tick))
system.cpu0.dcache.tags.occupanciesTaskId::1024          696                       # Occupied blocks per task id (Count)
system.cpu0.dcache.tags.ageTaskId_1024::2          119                       # Occupied blocks per task id, per block age (Count)
system.cpu0.dcache.tags.ageTaskId_1024::3          577                       # Occupied blocks per task id, per block age (Count)
system.cpu0.dcache.tags.ratioOccsTaskId::1024     0.679688                       # Ratio of occupied blocks and all blocks, per task id (Ratio)
system.cpu0.dcache.tags.tagAccesses          69655188                       # Number of tag accesses (Count)
system.cpu0.dcache.tags.dataAccesses         69655188                       # Number of data accesses (Count)
system.cpu0.dcache.tags.power_state.pwrStateResidencyTicks::UNDEFINED 4993096376000                       # Cumulative time (in ticks) in various power states (Tick)
system.cpu0.dtb_walker_cache.demandHits::switch_cpus0.mmu.dtb.walker       916565                       # number of demand (read+write) hits (Count)
system.cpu0.dtb_walker_cache.demandHits::total       916565                       # number of demand (read+write) hits (Count)
system.cpu0.dtb_walker_cache.overallHits::switch_cpus0.mmu.dtb.walker       916565                       # number of overall hits (Count)
system.cpu0.dtb_walker_cache.overallHits::total       916565                       # number of overall hits (Count)
system.cpu0.dtb_walker_cache.demandMisses::switch_cpus0.mmu.dtb.walker      2572509                       # number of demand (read+write) misses (Count)
system.cpu0.dtb_walker_cache.demandMisses::total      2572509                       # number of demand (read+write) misses (Count)
system.cpu0.dtb_walker_cache.overallMisses::switch_cpus0.mmu.dtb.walker      2572509                       # number of overall misses (Count)
system.cpu0.dtb_walker_cache.overallMisses::total      2572509                       # number of overall misses (Count)
system.cpu0.dtb_walker_cache.demandMissLatency::switch_cpus0.mmu.dtb.walker 167443122500                       # number of demand (read+write) miss ticks (Tick)
system.cpu0.dtb_walker_cache.demandMissLatency::total 167443122500                       # number of demand (read+write) miss ticks (Tick)
system.cpu0.dtb_walker_cache.overallMissLatency::switch_cpus0.mmu.dtb.walker 167443122500                       # number of overall miss ticks (Tick)
system.cpu0.dtb_walker_cache.overallMissLatency::total 167443122500                       # number of overall miss ticks (Tick)
system.cpu0.dtb_walker_cache.demandAccesses::switch_cpus0.mmu.dtb.walker      3489074                       # number of demand (read+write) accesses (Count)
system.cpu0.dtb_walker_cache.demandAccesses::total      3489074                       # number of demand (read+write) accesses (Count)
system.cpu0.dtb_walker_cache.overallAccesses::switch_cpus0.mmu.dtb.walker      3489074                       # number of overall (read+write) accesses (Count)
system.cpu0.dtb_walker_cache.overallAccesses::total      3489074                       # number of overall (read+write) accesses (Count)
system.cpu0.dtb_walker_cache.demandMissRate::switch_cpus0.mmu.dtb.walker     0.737304                       # miss rate for demand accesses (Ratio)
system.cpu0.dtb_walker_cache.demandMissRate::total     0.737304                       # miss rate for demand accesses (Ratio)
system.cpu0.dtb_walker_cache.overallMissRate::switch_cpus0.mmu.dtb.walker     0.737304                       # miss rate for overall accesses (Ratio)
system.cpu0.dtb_walker_cache.overallMissRate::total     0.737304                       # miss rate for overall accesses (Ratio)
system.cpu0.dtb_walker_cache.demandAvgMissLatency::switch_cpus0.mmu.dtb.walker 65089.421456                       # average overall miss latency in ticks ((Tick/Count))
system.cpu0.dtb_walker_cache.demandAvgMissLatency::total 65089.421456                       # average overall miss latency in ticks ((Tick/Count))
system.cpu0.dtb_walker_cache.overallAvgMissLatency::switch_cpus0.mmu.dtb.walker 65089.421456                       # average overall miss latency ((Tick/Count))
system.cpu0.dtb_walker_cache.overallAvgMissLatency::total 65089.421456                       # average overall miss latency ((Tick/Count))
system.cpu0.dtb_walker_cache.blockedCycles::no_mshrs            0                       # number of cycles access was blocked (Cycle)
system.cpu0.dtb_walker_cache.blockedCycles::no_targets            0                       # number of cycles access was blocked (Cycle)
system.cpu0.dtb_walker_cache.blockedCauses::no_mshrs            0                       # number of times access was blocked (Count)
system.cpu0.dtb_walker_cache.blockedCauses::no_targets            0                       # number of times access was blocked (Count)
system.cpu0.dtb_walker_cache.avgBlocked::no_mshrs          nan                       # average number of cycles each access was blocked ((Cycle/Count))
system.cpu0.dtb_walker_cache.avgBlocked::no_targets          nan                       # average number of cycles each access was blocked ((Cycle/Count))
system.cpu0.dtb_walker_cache.demandMshrMisses::switch_cpus0.mmu.dtb.walker      2572509                       # number of demand (read+write) MSHR misses (Count)
system.cpu0.dtb_walker_cache.demandMshrMisses::total      2572509                       # number of demand (read+write) MSHR misses (Count)
system.cpu0.dtb_walker_cache.overallMshrMisses::switch_cpus0.mmu.dtb.walker      2572509                       # number of overall MSHR misses (Count)
system.cpu0.dtb_walker_cache.overallMshrMisses::total      2572509                       # number of overall MSHR misses (Count)
system.cpu0.dtb_walker_cache.demandMshrMissLatency::switch_cpus0.mmu.dtb.walker 164870613500                       # number of demand (read+write) MSHR miss ticks (Tick)
system.cpu0.dtb_walker_cache.demandMshrMissLatency::total 164870613500                       # number of demand (read+write) MSHR miss ticks (Tick)
system.cpu0.dtb_walker_cache.overallMshrMissLatency::switch_cpus0.mmu.dtb.walker 164870613500                       # number of overall MSHR miss ticks (Tick)
system.cpu0.dtb_walker_cache.overallMshrMissLatency::total 164870613500                       # number of overall MSHR miss ticks (Tick)
system.cpu0.dtb_walker_cache.demandMshrMissRate::switch_cpus0.mmu.dtb.walker     0.737304                       # mshr miss ratio for demand accesses (Ratio)
system.cpu0.dtb_walker_cache.demandMshrMissRate::total     0.737304                       # mshr miss ratio for demand accesses (Ratio)
system.cpu0.dtb_walker_cache.overallMshrMissRate::switch_cpus0.mmu.dtb.walker     0.737304                       # mshr miss ratio for overall accesses (Ratio)
system.cpu0.dtb_walker_cache.overallMshrMissRate::total     0.737304                       # mshr miss ratio for overall accesses (Ratio)
system.cpu0.dtb_walker_cache.demandAvgMshrMissLatency::switch_cpus0.mmu.dtb.walker 64089.421456                       # average overall mshr miss latency ((Tick/Count))
system.cpu0.dtb_walker_cache.demandAvgMshrMissLatency::total 64089.421456                       # average overall mshr miss latency ((Tick/Count))
system.cpu0.dtb_walker_cache.overallAvgMshrMissLatency::switch_cpus0.mmu.dtb.walker 64089.421456                       # average overall mshr miss latency ((Tick/Count))
system.cpu0.dtb_walker_cache.overallAvgMshrMissLatency::total 64089.421456                       # average overall mshr miss latency ((Tick/Count))
system.cpu0.dtb_walker_cache.replacements      2572236                       # number of replacements (Count)
system.cpu0.dtb_walker_cache.ReadReq.hits::switch_cpus0.mmu.dtb.walker       916565                       # number of ReadReq hits (Count)
system.cpu0.dtb_walker_cache.ReadReq.hits::total       916565                       # number of ReadReq hits (Count)
system.cpu0.dtb_walker_cache.ReadReq.misses::switch_cpus0.mmu.dtb.walker      2572509                       # number of ReadReq misses (Count)
system.cpu0.dtb_walker_cache.ReadReq.misses::total      2572509                       # number of ReadReq misses (Count)
system.cpu0.dtb_walker_cache.ReadReq.missLatency::switch_cpus0.mmu.dtb.walker 167443122500                       # number of ReadReq miss ticks (Tick)
system.cpu0.dtb_walker_cache.ReadReq.missLatency::total 167443122500                       # number of ReadReq miss ticks (Tick)
system.cpu0.dtb_walker_cache.ReadReq.accesses::switch_cpus0.mmu.dtb.walker      3489074                       # number of ReadReq accesses(hits+misses) (Count)
system.cpu0.dtb_walker_cache.ReadReq.accesses::total      3489074                       # number of ReadReq accesses(hits+misses) (Count)
system.cpu0.dtb_walker_cache.ReadReq.missRate::switch_cpus0.mmu.dtb.walker     0.737304                       # miss rate for ReadReq accesses (Ratio)
system.cpu0.dtb_walker_cache.ReadReq.missRate::total     0.737304                       # miss rate for ReadReq accesses (Ratio)
system.cpu0.dtb_walker_cache.ReadReq.avgMissLatency::switch_cpus0.mmu.dtb.walker 65089.421456                       # average ReadReq miss latency ((Tick/Count))
system.cpu0.dtb_walker_cache.ReadReq.avgMissLatency::total 65089.421456                       # average ReadReq miss latency ((Tick/Count))
system.cpu0.dtb_walker_cache.ReadReq.mshrMisses::switch_cpus0.mmu.dtb.walker      2572509                       # number of ReadReq MSHR misses (Count)
system.cpu0.dtb_walker_cache.ReadReq.mshrMisses::total      2572509                       # number of ReadReq MSHR misses (Count)
system.cpu0.dtb_walker_cache.ReadReq.mshrMissLatency::switch_cpus0.mmu.dtb.walker 164870613500                       # number of ReadReq MSHR miss ticks (Tick)
system.cpu0.dtb_walker_cache.ReadReq.mshrMissLatency::total 164870613500                       # number of ReadReq MSHR miss ticks (Tick)
system.cpu0.dtb_walker_cache.ReadReq.mshrMissRate::switch_cpus0.mmu.dtb.walker     0.737304                       # mshr miss rate for ReadReq accesses (Ratio)
system.cpu0.dtb_walker_cache.ReadReq.mshrMissRate::total     0.737304                       # mshr miss rate for ReadReq accesses (Ratio)
system.cpu0.dtb_walker_cache.ReadReq.avgMshrMissLatency::switch_cpus0.mmu.dtb.walker 64089.421456                       # average ReadReq mshr miss latency ((Tick/Count))
system.cpu0.dtb_walker_cache.ReadReq.avgMshrMissLatency::total 64089.421456                       # average ReadReq mshr miss latency ((Tick/Count))
system.cpu0.dtb_walker_cache.power_state.pwrStateResidencyTicks::UNDEFINED 4993096376000                       # Cumulative time (in ticks) in various power states (Tick)
system.cpu0.dtb_walker_cache.tags.tagsInUse    15.967892                       # Average ticks per tags in use ((Tick/Count))
system.cpu0.dtb_walker_cache.tags.totalRefs      3489074                       # Total number of references to valid blocks. (Count)
system.cpu0.dtb_walker_cache.tags.sampledRefs      2572509                       # Sample count of references to valid blocks. (Count)
system.cpu0.dtb_walker_cache.tags.avgRefs     1.356292                       # Average number of references to valid blocks. ((Count/Count))
system.cpu0.dtb_walker_cache.tags.warmupTick 4695630145000                       # The tick when the warmup percentage was hit. (Tick)
system.cpu0.dtb_walker_cache.tags.occupancies::switch_cpus0.mmu.dtb.walker    15.967892                       # Average occupied blocks per tick, per requestor ((Count/Tick))
system.cpu0.dtb_walker_cache.tags.avgOccs::switch_cpus0.mmu.dtb.walker     0.997993                       # Average percentage of cache occupancy ((Ratio/Tick))
system.cpu0.dtb_walker_cache.tags.avgOccs::total     0.997993                       # Average percentage of cache occupancy ((Ratio/Tick))
system.cpu0.dtb_walker_cache.tags.occupanciesTaskId::1024           16                       # Occupied blocks per task id (Count)
system.cpu0.dtb_walker_cache.tags.ageTaskId_1024::2           12                       # Occupied blocks per task id, per block age (Count)
system.cpu0.dtb_walker_cache.tags.ageTaskId_1024::3            4                       # Occupied blocks per task id, per block age (Count)
system.cpu0.dtb_walker_cache.tags.ratioOccsTaskId::1024            1                       # Ratio of occupied blocks and all blocks, per task id (Ratio)
system.cpu0.dtb_walker_cache.tags.tagAccesses      9550657                       # Number of tag accesses (Count)
system.cpu0.dtb_walker_cache.tags.dataAccesses      9550657                       # Number of data accesses (Count)
system.cpu0.dtb_walker_cache.tags.power_state.pwrStateResidencyTicks::UNDEFINED 4993096376000                       # Cumulative time (in ticks) in various power states (Tick)
system.cpu0.exec_context.thread_0.numMatAluAccesses            0                       # Number of matrix alu accesses (Count)
system.cpu0.exec_context.thread_0.numCallsReturns            1                       # Number of times a function call or return occured (Count)
system.cpu0.exec_context.thread_0.numMatInsts            0                       # Number of matrix instructions (Count)
system.cpu0.exec_context.thread_0.numIdleCycles            0                       # Number of idle cycles (Cycle)
system.cpu0.exec_context.thread_0.numBusyCycles           22                       # Number of busy cycles (Cycle)
system.cpu0.exec_context.thread_0.notIdleFraction            1                       # Percentage of non-idle cycles (Ratio)
system.cpu0.exec_context.thread_0.idleFraction            0                       # Percentage of idle cycles (Ratio)
system.cpu0.executeStats0.numInsts                  0                       # Number of executed instructions (Count)
system.cpu0.executeStats0.numNop                    0                       # Number of nop insts executed (Count)
system.cpu0.executeStats0.numBranches               0                       # Number of branches executed (Count)
system.cpu0.executeStats0.numLoadInsts              0                       # Number of load instructions executed (Count)
system.cpu0.executeStats0.numStoreInsts             3                       # Number of stores executed (Count)
system.cpu0.executeStats0.instRate                  0                       # Inst execution rate ((Count/Cycle))
system.cpu0.executeStats0.numFpRegWrites            0                       # Number of times the floating registers were written (Count)
system.cpu0.executeStats0.numIntAluAccesses           19                       # Number of integer alu accesses (Count)
system.cpu0.executeStats0.numIntRegReads           15                       # Number of times the integer registers were read (Count)
system.cpu0.executeStats0.numIntRegWrites           14                       # Number of times the integer registers were written (Count)
system.cpu0.executeStats0.numMemRefs                3                       # Number of memory refs (Count)
system.cpu0.executeStats0.numMiscRegReads           12                       # Number of times the Misc registers were read (Count)
system.cpu0.executeStats0.numVecAluAccesses            0                       # Number of vector alu accesses (Count)
system.cpu0.executeStats0.numDiscardedOps            0                       # Number of ops (including micro ops) which were discarded before commit (Count)
system.cpu0.fetchStats0.numInsts                    8                       # Number of instructions fetched (thread level) (Count)
system.cpu0.fetchStats0.numOps                     19                       # Number of ops (including micro ops) fetched (thread level) (Count)
system.cpu0.fetchStats0.fetchRate            0.363636                       # Number of inst fetches per cycle ((Count/Cycle))
system.cpu0.fetchStats0.numBranches                 4                       # Number of branches fetched (Count)
system.cpu0.fetchStats0.branchRate           0.181818                       # Number of branch fetches per cycle (Ratio)
system.cpu0.fetchStats0.numFetchSuspends            0                       # Number of times Execute suspended instruction fetching (Count)
system.cpu0.icache.demandHits::cpu0.inst            6                       # number of demand (read+write) hits (Count)
system.cpu0.icache.demandHits::switch_cpus0.inst     35378356                       # number of demand (read+write) hits (Count)
system.cpu0.icache.demandHits::total         35378362                       # number of demand (read+write) hits (Count)
system.cpu0.icache.overallHits::cpu0.inst            6                       # number of overall hits (Count)
system.cpu0.icache.overallHits::switch_cpus0.inst     35378356                       # number of overall hits (Count)
system.cpu0.icache.overallHits::total        35378362                       # number of overall hits (Count)
system.cpu0.icache.demandMisses::cpu0.inst            5                       # number of demand (read+write) misses (Count)
system.cpu0.icache.demandMisses::switch_cpus0.inst        66633                       # number of demand (read+write) misses (Count)
system.cpu0.icache.demandMisses::total          66638                       # number of demand (read+write) misses (Count)
system.cpu0.icache.overallMisses::cpu0.inst            5                       # number of overall misses (Count)
system.cpu0.icache.overallMisses::switch_cpus0.inst        66633                       # number of overall misses (Count)
system.cpu0.icache.overallMisses::total         66638                       # number of overall misses (Count)
system.cpu0.icache.demandMissLatency::switch_cpus0.inst   4939980997                       # number of demand (read+write) miss ticks (Tick)
system.cpu0.icache.demandMissLatency::total   4939980997                       # number of demand (read+write) miss ticks (Tick)
system.cpu0.icache.overallMissLatency::switch_cpus0.inst   4939980997                       # number of overall miss ticks (Tick)
system.cpu0.icache.overallMissLatency::total   4939980997                       # number of overall miss ticks (Tick)
system.cpu0.icache.demandAccesses::cpu0.inst           11                       # number of demand (read+write) accesses (Count)
system.cpu0.icache.demandAccesses::switch_cpus0.inst     35444989                       # number of demand (read+write) accesses (Count)
system.cpu0.icache.demandAccesses::total     35445000                       # number of demand (read+write) accesses (Count)
system.cpu0.icache.overallAccesses::cpu0.inst           11                       # number of overall (read+write) accesses (Count)
system.cpu0.icache.overallAccesses::switch_cpus0.inst     35444989                       # number of overall (read+write) accesses (Count)
system.cpu0.icache.overallAccesses::total     35445000                       # number of overall (read+write) accesses (Count)
system.cpu0.icache.demandMissRate::cpu0.inst     0.454545                       # miss rate for demand accesses (Ratio)
system.cpu0.icache.demandMissRate::switch_cpus0.inst     0.001880                       # miss rate for demand accesses (Ratio)
system.cpu0.icache.demandMissRate::total     0.001880                       # miss rate for demand accesses (Ratio)
system.cpu0.icache.overallMissRate::cpu0.inst     0.454545                       # miss rate for overall accesses (Ratio)
system.cpu0.icache.overallMissRate::switch_cpus0.inst     0.001880                       # miss rate for overall accesses (Ratio)
system.cpu0.icache.overallMissRate::total     0.001880                       # miss rate for overall accesses (Ratio)
system.cpu0.icache.demandAvgMissLatency::switch_cpus0.inst 74137.154218                       # average overall miss latency in ticks ((Tick/Count))
system.cpu0.icache.demandAvgMissLatency::total 74131.591539                       # average overall miss latency in ticks ((Tick/Count))
system.cpu0.icache.overallAvgMissLatency::switch_cpus0.inst 74137.154218                       # average overall miss latency ((Tick/Count))
system.cpu0.icache.overallAvgMissLatency::total 74131.591539                       # average overall miss latency ((Tick/Count))
system.cpu0.icache.blockedCycles::no_mshrs         4598                       # number of cycles access was blocked (Cycle)
system.cpu0.icache.blockedCycles::no_targets            0                       # number of cycles access was blocked (Cycle)
system.cpu0.icache.blockedCauses::no_mshrs           68                       # number of times access was blocked (Count)
system.cpu0.icache.blockedCauses::no_targets            0                       # number of times access was blocked (Count)
system.cpu0.icache.avgBlocked::no_mshrs     67.617647                       # average number of cycles each access was blocked ((Cycle/Count))
system.cpu0.icache.avgBlocked::no_targets          nan                       # average number of cycles each access was blocked ((Cycle/Count))
system.cpu0.icache.writebacks::writebacks        56194                       # number of writebacks (Count)
system.cpu0.icache.writebacks::total            56194                       # number of writebacks (Count)
system.cpu0.icache.demandMshrHits::switch_cpus0.inst         9932                       # number of demand (read+write) MSHR hits (Count)
system.cpu0.icache.demandMshrHits::total         9932                       # number of demand (read+write) MSHR hits (Count)
system.cpu0.icache.overallMshrHits::switch_cpus0.inst         9932                       # number of overall MSHR hits (Count)
system.cpu0.icache.overallMshrHits::total         9932                       # number of overall MSHR hits (Count)
system.cpu0.icache.demandMshrMisses::switch_cpus0.inst        56701                       # number of demand (read+write) MSHR misses (Count)
system.cpu0.icache.demandMshrMisses::total        56701                       # number of demand (read+write) MSHR misses (Count)
system.cpu0.icache.overallMshrMisses::switch_cpus0.inst        56701                       # number of overall MSHR misses (Count)
system.cpu0.icache.overallMshrMisses::total        56701                       # number of overall MSHR misses (Count)
system.cpu0.icache.demandMshrMissLatency::switch_cpus0.inst   4320068500                       # number of demand (read+write) MSHR miss ticks (Tick)
system.cpu0.icache.demandMshrMissLatency::total   4320068500                       # number of demand (read+write) MSHR miss ticks (Tick)
system.cpu0.icache.overallMshrMissLatency::switch_cpus0.inst   4320068500                       # number of overall MSHR miss ticks (Tick)
system.cpu0.icache.overallMshrMissLatency::total   4320068500                       # number of overall MSHR miss ticks (Tick)
system.cpu0.icache.demandMshrMissRate::switch_cpus0.inst     0.001600                       # mshr miss ratio for demand accesses (Ratio)
system.cpu0.icache.demandMshrMissRate::total     0.001600                       # mshr miss ratio for demand accesses (Ratio)
system.cpu0.icache.overallMshrMissRate::switch_cpus0.inst     0.001600                       # mshr miss ratio for overall accesses (Ratio)
system.cpu0.icache.overallMshrMissRate::total     0.001600                       # mshr miss ratio for overall accesses (Ratio)
system.cpu0.icache.demandAvgMshrMissLatency::switch_cpus0.inst 76190.340558                       # average overall mshr miss latency ((Tick/Count))
system.cpu0.icache.demandAvgMshrMissLatency::total 76190.340558                       # average overall mshr miss latency ((Tick/Count))
system.cpu0.icache.overallAvgMshrMissLatency::switch_cpus0.inst 76190.340558                       # average overall mshr miss latency ((Tick/Count))
system.cpu0.icache.overallAvgMshrMissLatency::total 76190.340558                       # average overall mshr miss latency ((Tick/Count))
system.cpu0.icache.replacements                 56194                       # number of replacements (Count)
system.cpu0.icache.ReadReq.hits::cpu0.inst            6                       # number of ReadReq hits (Count)
system.cpu0.icache.ReadReq.hits::switch_cpus0.inst     35378356                       # number of ReadReq hits (Count)
system.cpu0.icache.ReadReq.hits::total       35378362                       # number of ReadReq hits (Count)
system.cpu0.icache.ReadReq.misses::cpu0.inst            5                       # number of ReadReq misses (Count)
system.cpu0.icache.ReadReq.misses::switch_cpus0.inst        66633                       # number of ReadReq misses (Count)
system.cpu0.icache.ReadReq.misses::total        66638                       # number of ReadReq misses (Count)
system.cpu0.icache.ReadReq.missLatency::switch_cpus0.inst   4939980997                       # number of ReadReq miss ticks (Tick)
system.cpu0.icache.ReadReq.missLatency::total   4939980997                       # number of ReadReq miss ticks (Tick)
system.cpu0.icache.ReadReq.accesses::cpu0.inst           11                       # number of ReadReq accesses(hits+misses) (Count)
system.cpu0.icache.ReadReq.accesses::switch_cpus0.inst     35444989                       # number of ReadReq accesses(hits+misses) (Count)
system.cpu0.icache.ReadReq.accesses::total     35445000                       # number of ReadReq accesses(hits+misses) (Count)
system.cpu0.icache.ReadReq.missRate::cpu0.inst     0.454545                       # miss rate for ReadReq accesses (Ratio)
system.cpu0.icache.ReadReq.missRate::switch_cpus0.inst     0.001880                       # miss rate for ReadReq accesses (Ratio)
system.cpu0.icache.ReadReq.missRate::total     0.001880                       # miss rate for ReadReq accesses (Ratio)
system.cpu0.icache.ReadReq.avgMissLatency::switch_cpus0.inst 74137.154218                       # average ReadReq miss latency ((Tick/Count))
system.cpu0.icache.ReadReq.avgMissLatency::total 74131.591539                       # average ReadReq miss latency ((Tick/Count))
system.cpu0.icache.ReadReq.mshrHits::switch_cpus0.inst         9932                       # number of ReadReq MSHR hits (Count)
system.cpu0.icache.ReadReq.mshrHits::total         9932                       # number of ReadReq MSHR hits (Count)
system.cpu0.icache.ReadReq.mshrMisses::switch_cpus0.inst        56701                       # number of ReadReq MSHR misses (Count)
system.cpu0.icache.ReadReq.mshrMisses::total        56701                       # number of ReadReq MSHR misses (Count)
system.cpu0.icache.ReadReq.mshrMissLatency::switch_cpus0.inst   4320068500                       # number of ReadReq MSHR miss ticks (Tick)
system.cpu0.icache.ReadReq.mshrMissLatency::total   4320068500                       # number of ReadReq MSHR miss ticks (Tick)
system.cpu0.icache.ReadReq.mshrMissRate::switch_cpus0.inst     0.001600                       # mshr miss rate for ReadReq accesses (Ratio)
system.cpu0.icache.ReadReq.mshrMissRate::total     0.001600                       # mshr miss rate for ReadReq accesses (Ratio)
system.cpu0.icache.ReadReq.avgMshrMissLatency::switch_cpus0.inst 76190.340558                       # average ReadReq mshr miss latency ((Tick/Count))
system.cpu0.icache.ReadReq.avgMshrMissLatency::total 76190.340558                       # average ReadReq mshr miss latency ((Tick/Count))
system.cpu0.icache.power_state.pwrStateResidencyTicks::UNDEFINED 4993096376000                       # Cumulative time (in ticks) in various power states (Tick)
system.cpu0.icache.tags.tagsInUse          502.120391                       # Average ticks per tags in use ((Tick/Count))
system.cpu0.icache.tags.totalRefs            35435068                       # Total number of references to valid blocks. (Count)
system.cpu0.icache.tags.sampledRefs             56706                       # Sample count of references to valid blocks. (Count)
system.cpu0.icache.tags.avgRefs            624.890982                       # Average number of references to valid blocks. ((Count/Count))
system.cpu0.icache.tags.warmupTick       4695629801500                       # The tick when the warmup percentage was hit. (Tick)
system.cpu0.icache.tags.occupancies::cpu0.inst     0.058655                       # Average occupied blocks per tick, per requestor ((Count/Tick))
system.cpu0.icache.tags.occupancies::switch_cpus0.inst   502.061736                       # Average occupied blocks per tick, per requestor ((Count/Tick))
system.cpu0.icache.tags.avgOccs::cpu0.inst     0.000115                       # Average percentage of cache occupancy ((Ratio/Tick))
system.cpu0.icache.tags.avgOccs::switch_cpus0.inst     0.980589                       # Average percentage of cache occupancy ((Ratio/Tick))
system.cpu0.icache.tags.avgOccs::total       0.980704                       # Average percentage of cache occupancy ((Ratio/Tick))
system.cpu0.icache.tags.occupanciesTaskId::1024          512                       # Occupied blocks per task id (Count)
system.cpu0.icache.tags.ageTaskId_1024::2          257                       # Occupied blocks per task id, per block age (Count)
system.cpu0.icache.tags.ageTaskId_1024::3          255                       # Occupied blocks per task id, per block age (Count)
system.cpu0.icache.tags.ratioOccsTaskId::1024            1                       # Ratio of occupied blocks and all blocks, per task id (Ratio)
system.cpu0.icache.tags.tagAccesses          70946706                       # Number of tag accesses (Count)
system.cpu0.icache.tags.dataAccesses         70946706                       # Number of data accesses (Count)
system.cpu0.icache.tags.power_state.pwrStateResidencyTicks::UNDEFINED 4993096376000                       # Cumulative time (in ticks) in various power states (Tick)
system.cpu0.interrupts.clk_domain.clock          8000                       # Clock period in ticks (Tick)
system.cpu0.itb_walker_cache.demandHits::switch_cpus0.mmu.itb.walker         1453                       # number of demand (read+write) hits (Count)
system.cpu0.itb_walker_cache.demandHits::total         1453                       # number of demand (read+write) hits (Count)
system.cpu0.itb_walker_cache.overallHits::switch_cpus0.mmu.itb.walker         1453                       # number of overall hits (Count)
system.cpu0.itb_walker_cache.overallHits::total         1453                       # number of overall hits (Count)
system.cpu0.itb_walker_cache.demandMisses::switch_cpus0.mmu.itb.walker          735                       # number of demand (read+write) misses (Count)
system.cpu0.itb_walker_cache.demandMisses::total          735                       # number of demand (read+write) misses (Count)
system.cpu0.itb_walker_cache.overallMisses::switch_cpus0.mmu.itb.walker          735                       # number of overall misses (Count)
system.cpu0.itb_walker_cache.overallMisses::total          735                       # number of overall misses (Count)
system.cpu0.itb_walker_cache.demandMissLatency::switch_cpus0.mmu.itb.walker     59114500                       # number of demand (read+write) miss ticks (Tick)
system.cpu0.itb_walker_cache.demandMissLatency::total     59114500                       # number of demand (read+write) miss ticks (Tick)
system.cpu0.itb_walker_cache.overallMissLatency::switch_cpus0.mmu.itb.walker     59114500                       # number of overall miss ticks (Tick)
system.cpu0.itb_walker_cache.overallMissLatency::total     59114500                       # number of overall miss ticks (Tick)
system.cpu0.itb_walker_cache.demandAccesses::switch_cpus0.mmu.itb.walker         2188                       # number of demand (read+write) accesses (Count)
system.cpu0.itb_walker_cache.demandAccesses::total         2188                       # number of demand (read+write) accesses (Count)
system.cpu0.itb_walker_cache.overallAccesses::switch_cpus0.mmu.itb.walker         2188                       # number of overall (read+write) accesses (Count)
system.cpu0.itb_walker_cache.overallAccesses::total         2188                       # number of overall (read+write) accesses (Count)
system.cpu0.itb_walker_cache.demandMissRate::switch_cpus0.mmu.itb.walker     0.335923                       # miss rate for demand accesses (Ratio)
system.cpu0.itb_walker_cache.demandMissRate::total     0.335923                       # miss rate for demand accesses (Ratio)
system.cpu0.itb_walker_cache.overallMissRate::switch_cpus0.mmu.itb.walker     0.335923                       # miss rate for overall accesses (Ratio)
system.cpu0.itb_walker_cache.overallMissRate::total     0.335923                       # miss rate for overall accesses (Ratio)
system.cpu0.itb_walker_cache.demandAvgMissLatency::switch_cpus0.mmu.itb.walker 80427.891156                       # average overall miss latency in ticks ((Tick/Count))
system.cpu0.itb_walker_cache.demandAvgMissLatency::total 80427.891156                       # average overall miss latency in ticks ((Tick/Count))
system.cpu0.itb_walker_cache.overallAvgMissLatency::switch_cpus0.mmu.itb.walker 80427.891156                       # average overall miss latency ((Tick/Count))
system.cpu0.itb_walker_cache.overallAvgMissLatency::total 80427.891156                       # average overall miss latency ((Tick/Count))
system.cpu0.itb_walker_cache.blockedCycles::no_mshrs            0                       # number of cycles access was blocked (Cycle)
system.cpu0.itb_walker_cache.blockedCycles::no_targets            0                       # number of cycles access was blocked (Cycle)
system.cpu0.itb_walker_cache.blockedCauses::no_mshrs            0                       # number of times access was blocked (Count)
system.cpu0.itb_walker_cache.blockedCauses::no_targets            0                       # number of times access was blocked (Count)
system.cpu0.itb_walker_cache.avgBlocked::no_mshrs          nan                       # average number of cycles each access was blocked ((Cycle/Count))
system.cpu0.itb_walker_cache.avgBlocked::no_targets          nan                       # average number of cycles each access was blocked ((Cycle/Count))
system.cpu0.itb_walker_cache.demandMshrMisses::switch_cpus0.mmu.itb.walker          735                       # number of demand (read+write) MSHR misses (Count)
system.cpu0.itb_walker_cache.demandMshrMisses::total          735                       # number of demand (read+write) MSHR misses (Count)
system.cpu0.itb_walker_cache.overallMshrMisses::switch_cpus0.mmu.itb.walker          735                       # number of overall MSHR misses (Count)
system.cpu0.itb_walker_cache.overallMshrMisses::total          735                       # number of overall MSHR misses (Count)
system.cpu0.itb_walker_cache.demandMshrMissLatency::switch_cpus0.mmu.itb.walker     58379500                       # number of demand (read+write) MSHR miss ticks (Tick)
system.cpu0.itb_walker_cache.demandMshrMissLatency::total     58379500                       # number of demand (read+write) MSHR miss ticks (Tick)
system.cpu0.itb_walker_cache.overallMshrMissLatency::switch_cpus0.mmu.itb.walker     58379500                       # number of overall MSHR miss ticks (Tick)
system.cpu0.itb_walker_cache.overallMshrMissLatency::total     58379500                       # number of overall MSHR miss ticks (Tick)
system.cpu0.itb_walker_cache.demandMshrMissRate::switch_cpus0.mmu.itb.walker     0.335923                       # mshr miss ratio for demand accesses (Ratio)
system.cpu0.itb_walker_cache.demandMshrMissRate::total     0.335923                       # mshr miss ratio for demand accesses (Ratio)
system.cpu0.itb_walker_cache.overallMshrMissRate::switch_cpus0.mmu.itb.walker     0.335923                       # mshr miss ratio for overall accesses (Ratio)
system.cpu0.itb_walker_cache.overallMshrMissRate::total     0.335923                       # mshr miss ratio for overall accesses (Ratio)
system.cpu0.itb_walker_cache.demandAvgMshrMissLatency::switch_cpus0.mmu.itb.walker 79427.891156                       # average overall mshr miss latency ((Tick/Count))
system.cpu0.itb_walker_cache.demandAvgMshrMissLatency::total 79427.891156                       # average overall mshr miss latency ((Tick/Count))
system.cpu0.itb_walker_cache.overallAvgMshrMissLatency::switch_cpus0.mmu.itb.walker 79427.891156                       # average overall mshr miss latency ((Tick/Count))
system.cpu0.itb_walker_cache.overallAvgMshrMissLatency::total 79427.891156                       # average overall mshr miss latency ((Tick/Count))
system.cpu0.itb_walker_cache.replacements          701                       # number of replacements (Count)
system.cpu0.itb_walker_cache.ReadReq.hits::switch_cpus0.mmu.itb.walker         1453                       # number of ReadReq hits (Count)
system.cpu0.itb_walker_cache.ReadReq.hits::total         1453                       # number of ReadReq hits (Count)
system.cpu0.itb_walker_cache.ReadReq.misses::switch_cpus0.mmu.itb.walker          735                       # number of ReadReq misses (Count)
system.cpu0.itb_walker_cache.ReadReq.misses::total          735                       # number of ReadReq misses (Count)
system.cpu0.itb_walker_cache.ReadReq.missLatency::switch_cpus0.mmu.itb.walker     59114500                       # number of ReadReq miss ticks (Tick)
system.cpu0.itb_walker_cache.ReadReq.missLatency::total     59114500                       # number of ReadReq miss ticks (Tick)
system.cpu0.itb_walker_cache.ReadReq.accesses::switch_cpus0.mmu.itb.walker         2188                       # number of ReadReq accesses(hits+misses) (Count)
system.cpu0.itb_walker_cache.ReadReq.accesses::total         2188                       # number of ReadReq accesses(hits+misses) (Count)
system.cpu0.itb_walker_cache.ReadReq.missRate::switch_cpus0.mmu.itb.walker     0.335923                       # miss rate for ReadReq accesses (Ratio)
system.cpu0.itb_walker_cache.ReadReq.missRate::total     0.335923                       # miss rate for ReadReq accesses (Ratio)
system.cpu0.itb_walker_cache.ReadReq.avgMissLatency::switch_cpus0.mmu.itb.walker 80427.891156                       # average ReadReq miss latency ((Tick/Count))
system.cpu0.itb_walker_cache.ReadReq.avgMissLatency::total 80427.891156                       # average ReadReq miss latency ((Tick/Count))
system.cpu0.itb_walker_cache.ReadReq.mshrMisses::switch_cpus0.mmu.itb.walker          735                       # number of ReadReq MSHR misses (Count)
system.cpu0.itb_walker_cache.ReadReq.mshrMisses::total          735                       # number of ReadReq MSHR misses (Count)
system.cpu0.itb_walker_cache.ReadReq.mshrMissLatency::switch_cpus0.mmu.itb.walker     58379500                       # number of ReadReq MSHR miss ticks (Tick)
system.cpu0.itb_walker_cache.ReadReq.mshrMissLatency::total     58379500                       # number of ReadReq MSHR miss ticks (Tick)
system.cpu0.itb_walker_cache.ReadReq.mshrMissRate::switch_cpus0.mmu.itb.walker     0.335923                       # mshr miss rate for ReadReq accesses (Ratio)
system.cpu0.itb_walker_cache.ReadReq.mshrMissRate::total     0.335923                       # mshr miss rate for ReadReq accesses (Ratio)
system.cpu0.itb_walker_cache.ReadReq.avgMshrMissLatency::switch_cpus0.mmu.itb.walker 79427.891156                       # average ReadReq mshr miss latency ((Tick/Count))
system.cpu0.itb_walker_cache.ReadReq.avgMshrMissLatency::total 79427.891156                       # average ReadReq mshr miss latency ((Tick/Count))
system.cpu0.itb_walker_cache.power_state.pwrStateResidencyTicks::UNDEFINED 4993096376000                       # Cumulative time (in ticks) in various power states (Tick)
system.cpu0.itb_walker_cache.tags.tagsInUse    14.660138                       # Average ticks per tags in use ((Tick/Count))
system.cpu0.itb_walker_cache.tags.totalRefs         2188                       # Total number of references to valid blocks. (Count)
system.cpu0.itb_walker_cache.tags.sampledRefs          735                       # Sample count of references to valid blocks. (Count)
system.cpu0.itb_walker_cache.tags.avgRefs     2.976871                       # Average number of references to valid blocks. ((Count/Count))
system.cpu0.itb_walker_cache.tags.warmupTick 4695629889000                       # The tick when the warmup percentage was hit. (Tick)
system.cpu0.itb_walker_cache.tags.occupancies::switch_cpus0.mmu.itb.walker    14.660138                       # Average occupied blocks per tick, per requestor ((Count/Tick))
system.cpu0.itb_walker_cache.tags.avgOccs::switch_cpus0.mmu.itb.walker     0.916259                       # Average percentage of cache occupancy ((Ratio/Tick))
system.cpu0.itb_walker_cache.tags.avgOccs::total     0.916259                       # Average percentage of cache occupancy ((Ratio/Tick))
system.cpu0.itb_walker_cache.tags.occupanciesTaskId::1024           16                       # Occupied blocks per task id (Count)
system.cpu0.itb_walker_cache.tags.ageTaskId_1024::3           16                       # Occupied blocks per task id, per block age (Count)
[...]
system.switch_cpus3.fetch.nisnDist::underflows            0      0.00%      0.00% # Number of instructions fetched each cycle (Total) (Count)
system.switch_cpus3.fetch.nisnDist::0       394585330     82.88%     82.88% # Number of instructions fetched each cycle (Total) (Count)
system.switch_cpus3.fetch.nisnDist::1         5145100      1.08%     83.96% # Number of instructions fetched each cycle (Total) (Count)
system.switch_cpus3.fetch.nisnDist::2         4795445      1.01%     84.97% # Number of instructions fetched each cycle (Total) (Count)
system.switch_cpus3.fetch.nisnDist::3         5590611      1.17%     86.14% # Number of instructions fetched each cycle (Total) (Count)
system.switch_cpus3.fetch.nisnDist::4        11748579      2.47%     88.61% # Number of instructions fetched each cycle (Total) (Count)
system.switch_cpus3.fetch.nisnDist::5         9738616      2.05%     90.66% # Number of instructions fetched each cycle (Total) (Count)
system.switch_cpus3.fetch.nisnDist::6         2004619      0.42%     91.08% # Number of instructions fetched each cycle (Total) (Count)
system.switch_cpus3.fetch.nisnDist::7        17951498      3.77%     94.85% # Number of instructions fetched each cycle (Total) (Count)
system.switch_cpus3.fetch.nisnDist::8        24531230      5.15%    100.00% # Number of instructions fetched each cycle (Total) (Count)
system.switch_cpus3.fetch.nisnDist::overflows            0      0.00%    100.00% # Number of instructions fetched each cycle (Total) (Count)
system.switch_cpus3.fetch.nisnDist::min_value            0                       # Number of instructions fetched each cycle (Total) (Count)
system.switch_cpus3.fetch.nisnDist::max_value            8                       # Number of instructions fetched each cycle (Total) (Count)
system.switch_cpus3.fetch.nisnDist::total    476091028                       # Number of instructions fetched each cycle (Total) (Count)
system.switch_cpus3.fetchStats0.numInsts    265282457                       # Number of instructions fetched (thread level) (Count)
system.switch_cpus3.fetchStats0.numOps              0                       # Number of ops (including micro ops) fetched (thread level) (Count)
system.switch_cpus3.fetchStats0.fetchRate     0.550616                       # Number of inst fetches per cycle ((Count/Cycle))
system.switch_cpus3.fetchStats0.numBranches     68025130                       # Number of branches fetched (Count)
system.switch_cpus3.fetchStats0.branchRate     0.141192                       # Number of branch fetches per cycle (Ratio)
system.switch_cpus3.fetchStats0.icacheStallCycles     48058442                       # ICache total stall cycles (Cycle)
system.switch_cpus3.fetchStats0.numFetchSuspends            0                       # Number of times Execute suspended instruction fetching (Count)
system.switch_cpus3.iew.idleCycles                  0                       # Number of cycles IEW is idle (Cycle)
system.switch_cpus3.iew.squashCycles          3516999                       # Number of cycles IEW is squashing (Cycle)
system.switch_cpus3.iew.blockCycles         112859873                       # Number of cycles IEW is blocking (Cycle)
system.switch_cpus3.iew.unblockCycles         2266446                       # Number of cycles IEW is unblocking (Cycle)
system.switch_cpus3.iew.dispatchedInsts     351242680                       # Number of instructions dispatched to IQ (Count)
system.switch_cpus3.iew.dispSquashedInsts       609913                       # Number of squashed instructions skipped by dispatch (Count)
system.switch_cpus3.iew.dispLoadInsts        38122601                       # Number of dispatched load instructions (Count)
system.switch_cpus3.iew.dispStoreInsts        6580973                       # Number of dispatched store instructions (Count)
system.switch_cpus3.iew.dispNonSpecInsts       177648                       # Number of dispatched non-speculative instructions (Count)
system.switch_cpus3.iew.iqFullEvents           461384                       # Number of times the IQ has become full, causing a stall (Count)
system.switch_cpus3.iew.lsqFullEvents         1393666                       # Number of times the LSQ has become full, causing a stall (Count)
system.switch_cpus3.iew.memOrderViolationEvents         7993                       # Number of memory order violations (Count)
system.switch_cpus3.iew.predictedTakenIncorrect      3230714                       # Number of branches that were predicted taken incorrectly (Count)
system.switch_cpus3.iew.predictedNotTakenIncorrect      1440229                       # Number of branches that were predicted not taken incorrectly (Count)
system.switch_cpus3.iew.branchMispredicts      4670943                       # Number of branch mispredicts detected at execute (Count)
system.switch_cpus3.iew.instsToCommit       310856926                       # Cumulative count of insts sent to commit (Count)
system.switch_cpus3.iew.writebackCount      309932878                       # Cumulative count of insts written-back (Count)
system.switch_cpus3.iew.producerInst        239978452                       # Number of instructions producing a value (Count)
system.switch_cpus3.iew.consumerInst        337118643                       # Number of instructions consuming a value (Count)
system.switch_cpus3.iew.wbRate               0.643291                       # Insts written-back per cycle ((Count/Cycle))
system.switch_cpus3.iew.wbFanout             0.711852                       # Average fanout of values written-back ((Count/Count))
system.switch_cpus3.lsq0.forwLoads             817150                       # Number of loads that had data forwarded from stores (Count)
system.switch_cpus3.lsq0.squashedLoads       13089720                       # Number of loads squashed (Count)
system.switch_cpus3.lsq0.ignoredResponses        11789                       # Number of memory responses ignored because the instruction is squashed (Count)
system.switch_cpus3.lsq0.memOrderViolation         7993                       # Number of memory ordering violations (Count)
system.switch_cpus3.lsq0.squashedStores       3062865                       # Number of stores squashed (Count)
system.switch_cpus3.lsq0.rescheduledLoads          931                       # Number of loads that were rescheduled (Count)
system.switch_cpus3.lsq0.blockedByCache         23649                       # Number of times an access to memory failed due to the cache being blocked (Count)
system.switch_cpus3.lsq0.loadToUse::samples     25032414                       # Distribution of cycle latency between the first time a load is issued and its completion (Unspecified)
system.switch_cpus3.lsq0.loadToUse::mean    87.214227                       # Distribution of cycle latency between the first time a load is issued and its completion (Unspecified)
system.switch_cpus3.lsq0.loadToUse::stdev   572.690986                       # Distribution of cycle latency between the first time a load is issued and its completion (Unspecified)
system.switch_cpus3.lsq0.loadToUse::0-9      23040182     92.04%     92.04% # Distribution of cycle latency between the first time a load is issued and its completion (Unspecified)
system.switch_cpus3.lsq0.loadToUse::10-19        35862      0.14%     92.18% # Distribution of cycle latency between the first time a load is issued and its completion (Unspecified)
system.switch_cpus3.lsq0.loadToUse::20-29       118876      0.47%     92.66% # Distribution of cycle latency between the first time a load is issued and its completion (Unspecified)
system.switch_cpus3.lsq0.loadToUse::30-39        28926      0.12%     92.78% # Distribution of cycle latency between the first time a load is issued and its completion (Unspecified)
system.switch_cpus3.lsq0.loadToUse::40-49        20728      0.08%     92.86% # Distribution of cycle latency between the first time a load is issued and its completion (Unspecified)
system.switch_cpus3.lsq0.loadToUse::50-59        24332      0.10%     92.96% # Distribution of cycle latency between the first time a load is issued and its completion (Unspecified)
system.switch_cpus3.lsq0.loadToUse::60-69        26916      0.11%     93.06% # Distribution of cycle latency between the first time a load is issued and its completion (Unspecified)
system.switch_cpus3.lsq0.loadToUse::70-79        38291      0.15%     93.22% # Distribution of cycle latency between the first time a load is issued and its completion (Unspecified)
system.switch_cpus3.lsq0.loadToUse::80-89        53072      0.21%     93.43% # Distribution of cycle latency between the first time a load is issued and its completion (Unspecified)
system.switch_cpus3.lsq0.loadToUse::90-99        61957      0.25%     93.68% # Distribution of cycle latency between the first time a load is issued and its completion (Unspecified)
system.switch_cpus3.lsq0.loadToUse::100-109       157402      0.63%     94.30% # Distribution of cycle latency between the first time a load is issued and its completion (Unspecified)
system.switch_cpus3.lsq0.loadToUse::110-119       119282      0.48%     94.78% # Distribution of cycle latency between the first time a load is issued and its completion (Unspecified)
system.switch_cpus3.lsq0.loadToUse::120-129        64961      0.26%     95.04% # Distribution of cycle latency between the first time a load is issued and its completion (Unspecified)
system.switch_cpus3.lsq0.loadToUse::130-139        94889      0.38%     95.42% # Distribution of cycle latency between the first time a load is issued and its completion (Unspecified)
system.switch_cpus3.lsq0.loadToUse::140-149        53970      0.22%     95.63% # Distribution of cycle latency between the first time a load is issued and its completion (Unspecified)
system.switch_cpus3.lsq0.loadToUse::150-159        77546      0.31%     95.94% # Distribution of cycle latency between the first time a load is issued and its completion (Unspecified)
system.switch_cpus3.lsq0.loadToUse::160-169       149934      0.60%     96.54% # Distribution of cycle latency between the first time a load is issued and its completion (Unspecified)
system.switch_cpus3.lsq0.loadToUse::170-179        44552      0.18%     96.72% # Distribution of cycle latency between the first time a load is issued and its completion (Unspecified)
system.switch_cpus3.lsq0.loadToUse::180-189        22974      0.09%     96.81% # Distribution of cycle latency between the first time a load is issued and its completion (Unspecified)
system.switch_cpus3.lsq0.loadToUse::190-199        15705      0.06%     96.88% # Distribution of cycle latency between the first time a load is issued and its completion (Unspecified)
system.switch_cpus3.lsq0.loadToUse::200-209        13355      0.05%     96.93% # Distribution of cycle latency between the first time a load is issued and its completion (Unspecified)
system.switch_cpus3.lsq0.loadToUse::210-219        11838      0.05%     96.98% # Distribution of cycle latency between the first time a load is issued and its completion (Unspecified)
system.switch_cpus3.lsq0.loadToUse::220-229         9634      0.04%     97.01% # Distribution of cycle latency between the first time a load is issued and its completion (Unspecified)
system.switch_cpus3.lsq0.loadToUse::230-239         8534      0.03%     97.05% # Distribution of cycle latency between the first time a load is issued and its completion (Unspecified)
system.switch_cpus3.lsq0.loadToUse::240-249         7558      0.03%     97.08% # Distribution of cycle latency between the first time a load is issued and its completion (Unspecified)
system.switch_cpus3.lsq0.loadToUse::250-259         7011      0.03%     97.11% # Distribution of cycle latency between the first time a load is issued and its completion (Unspecified)
system.switch_cpus3.lsq0.loadToUse::260-269         4825      0.02%     97.13% # Distribution of cycle latency between the first time a load is issued and its completion (Unspecified)
system.switch_cpus3.lsq0.loadToUse::270-279         3872      0.02%     97.14% # Distribution of cycle latency between the first time a load is issued and its completion (Unspecified)
system.switch_cpus3.lsq0.loadToUse::280-289         3136      0.01%     97.15% # Distribution of cycle latency between the first time a load is issued and its completion (Unspecified)
system.switch_cpus3.lsq0.loadToUse::290-299         2730      0.01%     97.17% # Distribution of cycle latency between the first time a load is issued and its completion (Unspecified)
system.switch_cpus3.lsq0.loadToUse::overflows       709564      2.83%    100.00% # Distribution of cycle latency between the first time a load is issued and its completion (Unspecified)
system.switch_cpus3.lsq0.loadToUse::min_value            2                       # Distribution of cycle latency between the first time a load is issued and its completion (Unspecified)
system.switch_cpus3.lsq0.loadToUse::max_value        28998                       # Distribution of cycle latency between the first time a load is issued and its completion (Unspecified)
system.switch_cpus3.lsq0.loadToUse::total     25032414                       # Distribution of cycle latency between the first time a load is issued and its completion (Unspecified)
system.switch_cpus3.mmu.dtb.rdAccesses       34344003                       # TLB accesses on read requests (Count)
system.switch_cpus3.mmu.dtb.wrAccesses        4832585                       # TLB accesses on write requests (Count)
system.switch_cpus3.mmu.dtb.rdMisses          1214505                       # TLB misses on read requests (Count)
system.switch_cpus3.mmu.dtb.wrMisses            72255                       # TLB misses on write requests (Count)
system.switch_cpus3.mmu.dtb.walker.power_state.pwrStateResidencyTicks::UNDEFINED 4993096376000                       # Cumulative time (in ticks) in various power states (Tick)
system.switch_cpus3.mmu.itb.rdAccesses              0                       # TLB accesses on read requests (Count)
system.switch_cpus3.mmu.itb.wrAccesses       37214481                       # TLB accesses on write requests (Count)
system.switch_cpus3.mmu.itb.rdMisses                0                       # TLB misses on read requests (Count)
system.switch_cpus3.mmu.itb.wrMisses             1262                       # TLB misses on write requests (Count)
system.switch_cpus3.mmu.itb.walker.power_state.pwrStateResidencyTicks::UNDEFINED 4993096376000                       # Cumulative time (in ticks) in various power states (Tick)
system.switch_cpus3.power_state.numTransitions          165                       # Number of power state transitions (Count)
system.switch_cpus3.power_state.ticksClkGated::samples           83                       # Distribution of time spent in the clock gated state (Tick)
system.switch_cpus3.power_state.ticksClkGated::mean 681571728.939759                       # Distribution of time spent in the clock gated state (Tick)
system.switch_cpus3.power_state.ticksClkGated::stdev 383370287.330827                       # Distribution of time spent in the clock gated state (Tick)
system.switch_cpus3.power_state.ticksClkGated::1000-5e+10           83    100.00%    100.00% # Distribution of time spent in the clock gated state (Tick)
system.switch_cpus3.power_state.ticksClkGated::min_value      8695000                       # Distribution of time spent in the clock gated state (Tick)
system.switch_cpus3.power_state.ticksClkGated::max_value    997332000                       # Distribution of time spent in the clock gated state (Tick)
system.switch_cpus3.power_state.ticksClkGated::total           83                       # Distribution of time spent in the clock gated state (Tick)
system.switch_cpus3.power_state.pwrStateResidencyTicks::ON 240891645998                       # Cumulative time (in ticks) in various power states (Tick)
system.switch_cpus3.power_state.pwrStateResidencyTicks::CLK_GATED  56570453502                       # Cumulative time (in ticks) in various power states (Tick)
system.switch_cpus3.power_state.pwrStateResidencyTicks::OFF      4475500                       # Cumulative time (in ticks) in various power states (Tick)
system.switch_cpus3.rename.squashCycles       3516999                       # Number of cycles rename is squashing (Cycle)
system.switch_cpus3.rename.idleCycles        55773085                       # Number of cycles rename is idle (Cycle)
system.switch_cpus3.rename.blockCycles      333103147                       # Number of cycles rename is blocking (Cycle)
system.switch_cpus3.rename.serializeStallCycles      3049077                       # count of cycles rename stalled for serializing inst (Cycle)
system.switch_cpus3.rename.runCycles         61853549                       # Number of cycles rename is running (Cycle)
system.switch_cpus3.rename.unblockCycles     18795163                       # Number of cycles rename is unblocking (Cycle)
system.switch_cpus3.rename.renamedInsts     375233189                       # Number of instructions processed by rename (Count)
system.switch_cpus3.rename.ROBFullEvents      1785564                       # Number of times rename has blocked due to ROB full (Count)
system.switch_cpus3.rename.IQFullEvents       6350013                       # Number of times rename has blocked due to IQ full (Count)
system.switch_cpus3.rename.LQFullEvents       4009542                       # Number of times rename has blocked due to LQ full (Count)
system.switch_cpus3.rename.SQFullEvents       5829651                       # Number of times rename has blocked due to SQ full (Count)
system.switch_cpus3.rename.fullRegistersEvents           33                       # Number of times there has been no free registers (Count)
system.switch_cpus3.rename.renamedOperands    758662847                       # Number of destination operands rename has renamed (Count)
system.switch_cpus3.rename.lookups         1359689113                       # Number of register rename lookups that rename has made (Count)
system.switch_cpus3.rename.intLookups       405888019                       # Number of integer rename lookups (Count)
system.switch_cpus3.rename.fpLookups          1848863                       # Number of floating rename lookups (Count)
system.switch_cpus3.rename.committedMaps    471108945                       # Number of HB maps that are committed (Count)
system.switch_cpus3.rename.undoneMaps       287553902                       # Number of HB maps that are undone due to squashing (Count)
system.switch_cpus3.rename.serializing          35892                       # count of serializing insts renamed (Count)
system.switch_cpus3.rename.tempSerializing        32801                       # count of temporary serializing insts renamed (Count)
system.switch_cpus3.rename.skidInsts         21524557                       # count of insts added to the skid buffer (Count)
system.switch_cpus3.rob.reads               806834733                       # The number of ROB reads (Count)
system.switch_cpus3.rob.writes              718418150                       # The number of ROB writes (Count)
system.switch_cpus3.thread_0.numInsts       134680983                       # Number of Instructions committed (Count)
system.switch_cpus3.thread_0.numOps         235522895                       # Number of Ops committed (Count)
system.switch_cpus3.thread_0.numMemRefs             0                       # Number of Memory References (Count)
system.voltage_domain.voltage                       1                       # Voltage in Volts (Volt)
system.workload.inst.arm                            0                       # number of arm instructions executed (Count)
system.workload.inst.quiesce                        0                       # number of quiesce instructions executed (Count)

---------- End Simulation Statistics   ----------
