
---------- Begin Simulation Statistics ----------
simSeconds                                   0.876692                       # Number of seconds simulated (Second)
simTicks                                 876692135250                       # Number of ticks simulated (Tick)
finalTick                                7043507371000                       # Number of ticks from beginning of simulation (restored from checkpoints and never reset) (Tick)
simFreq                                  1000000000000                       # The number of ticks per simulated second ((Tick/Second))
hostSeconds                                   2585.45                       # Real time elapsed on the host (Second)
hostTickRate                                339087093                       # The number of ticks simulated per host second (ticks/s) ((Tick/Second))
hostMemory                                    1185588                       # Number of bytes of host memory used (Byte)
simInsts                                    456419578                       # Number of instructions simulated (Count)
simOps                                      785899251                       # Number of ops (including micro ops) simulated (Count)
hostInstRate                                   176534                       # Simulator instruction rate (inst/s) ((Count/Second))
hostOpRate                                     303970                       # Simulator op (including micro ops) rate (op/s) ((Count/Second))
system.apicbridge.power_state.pwrStateResidencyTicks::UNDEFINED 7043507371000                       # Cumulative time (in ticks) in various power states (Tick)
system.bridge.power_state.pwrStateResidencyTicks::UNDEFINED 7043507371000                       # Cumulative time (in ticks) in various power states (Tick)
system.clk_domain.clock                          1000                       # Clock period in ticks (Tick)
system.cpu.numCycles                               21                       # Number of cpu cycles simulated (Cycle)
system.cpu.cpi                               2.625000                       # CPI: cycles per instruction (core level) ((Cycle/Count))
system.cpu.ipc                               0.380952                       # IPC: instructions per cycle (core level) ((Count/Cycle))
system.cpu.numWorkItemsStarted                      0                       # Number of work items this cpu started (Count)
system.cpu.numWorkItemsCompleted                    0                       # Number of work items this cpu completed (Count)
system.cpu.commitStats0.numInsts                    8                       # Number of instructions committed (thread level) (Count)
system.cpu.commitStats0.numOps                     18                       # Number of ops (including micro ops) committed (thread level) (Count)
system.cpu.commitStats0.numInstsNotNOP              0                       # Number of instructions committed excluding NOPs or prefetches (Count)
system.cpu.commitStats0.numOpsNotNOP                0                       # Number of Ops (including micro ops) Simulated (Count)
system.cpu.commitStats0.cpi                  2.625000                       # CPI: cycles per instruction (thread level) ((Cycle/Count))
system.cpu.commitStats0.ipc                  0.380952                       # IPC: instructions per cycle (thread level) ((Count/Cycle))
system.cpu.commitStats0.numMemRefs                  0                       # Number of memory references committed (Count)
system.cpu.commitStats0.numFpInsts                  0                       # Number of float instructions (Count)
system.cpu.commitStats0.numIntInsts                18                       # Number of integer instructions (Count)
system.cpu.commitStats0.numLoadInsts                5                       # Number of load instructions (Count)
system.cpu.commitStats0.numStoreInsts               0                       # Number of store instructions (Count)
system.cpu.commitStats0.numVecInsts                 0                       # Number of vector instructions (Count)
system.cpu.commitStats0.committedInstType::No_OpClass            0      0.00%      0.00% # Class of committed instruction. (Count)
system.cpu.commitStats0.committedInstType::MulZero            0      0.00%      0.00% # Class of committed instruction. (Count)
system.cpu.commitStats0.committedInstType::IntAlu           13     72.22%     72.22% # Class of committed instruction. (Count)
system.cpu.commitStats0.committedInstType::IntMult            0      0.00%     72.22% # Class of committed instruction. (Count)
system.cpu.commitStats0.committedInstType::IntDiv            0      0.00%     72.22% # Class of committed instruction. (Count)
system.cpu.commitStats0.committedInstType::FloatAdd            0      0.00%     72.22% # Class of committed instruction. (Count)
system.cpu.commitStats0.committedInstType::FloatCmp            0      0.00%     72.22% # Class of committed instruction. (Count)
system.cpu.commitStats0.committedInstType::FloatCvt            0      0.00%     72.22% # Class of committed instruction. (Count)
system.cpu.commitStats0.committedInstType::FloatMult            0      0.00%     72.22% # Class of committed instruction. (Count)
system.cpu.commitStats0.committedInstType::FloatMultAcc            0      0.00%     72.22% # Class of committed instruction. (Count)
system.cpu.commitStats0.committedInstType::FloatDiv            0      0.00%     72.22% # Class of committed instruction. (Count)
system.cpu.commitStats0.committedInstType::FloatMisc            0      0.00%     72.22% # Class of committed instruction. (Count)
system.cpu.commitStats0.committedInstType::FloatSqrt            0      0.00%     72.22% # Class of committed instruction. (Count)
system.cpu.commitStats0.committedInstType::SimdAdd            0      0.00%     72.22% # Class of committed instruction. (Count)
system.cpu.commitStats0.committedInstType::SimdAddAcc            0      0.00%     72.22% # Class of committed instruction. (Count)
system.cpu.commitStats0.committedInstType::SimdAlu            0      0.00%     72.22% # Class of committed instruction. (Count)
system.cpu.commitStats0.committedInstType::SimdCmp            0      0.00%     72.22% # Class of committed instruction. (Count)
system.cpu.commitStats0.committedInstType::SimdCvt            0      0.00%     72.22% # Class of committed instruction. (Count)
system.cpu.commitStats0.committedInstType::SimdMisc            0      0.00%     72.22% # Class of committed instruction. (Count)
system.cpu.commitStats0.committedInstType::SimdMult            0      0.00%     72.22% # Class of committed instruction. (Count)
system.cpu.commitStats0.committedInstType::SimdMultAcc            0      0.00%     72.22% # Class of committed instruction. (Count)
system.cpu.commitStats0.committedInstType::SimdMatMultAcc            0      0.00%     72.22% # Class of committed instruction. (Count)
system.cpu.commitStats0.committedInstType::SimdShift            0      0.00%     72.22% # Class of committed instruction. (Count)
system.cpu.commitStats0.committedInstType::SimdShiftAcc            0      0.00%     72.22% # Class of committed instruction. (Count)
system.cpu.commitStats0.committedInstType::SimdDiv            0      0.00%     72.22% # Class of committed instruction. (Count)
system.cpu.commitStats0.committedInstType::SimdSqrt            0      0.00%     72.22% # Class of committed instruction. (Count)
system.cpu.commitStats0.committedInstType::SimdFloatAdd            0      0.00%     72.22% # Class of committed instruction. (Count)
system.cpu.commitStats0.committedInstType::SimdFloatAlu            0      0.00%     72.22% # Class of committed instruction. (Count)
system.cpu.commitStats0.committedInstType::SimdFloatCmp            0      0.00%     72.22% # Class of committed instruction. (Count)
system.cpu.commitStats0.committedInstType::SimdFloatCvt            0      0.00%     72.22% # Class of committed instruction. (Count)
system.cpu.commitStats0.committedInstType::SimdFloatDiv            0      0.00%     72.22% # Class of committed instruction. (Count)
system.cpu.commitStats0.committedInstType::SimdFloatMisc            0      0.00%     72.22% # Class of committed instruction. (Count)
system.cpu.commitStats0.committedInstType::SimdFloatMult            0      0.00%     72.22% # Class of committed instruction. (Count)
system.cpu.commitStats0.committedInstType::SimdFloatMultAcc            0      0.00%     72.22% # Class of committed instruction. (Count)
system.cpu.commitStats0.committedInstType::SimdFloatMatMultAcc            0      0.00%     72.22% # Class of committed instruction. (Count)
system.cpu.commitStats0.committedInstType::SimdFloatSqrt            0      0.00%     72.22% # Class of committed instruction. (Count)
system.cpu.commitStats0.committedInstType::SimdReduceAdd            0      0.00%     72.22% # Class of committed instruction. (Count)
system.cpu.commitStats0.committedInstType::SimdReduceAlu            0      0.00%     72.22% # Class of committed instruction. (Count)
system.cpu.commitStats0.committedInstType::SimdReduceCmp            0      0.00%     72.22% # Class of committed instruction. (Count)
system.cpu.commitStats0.committedInstType::SimdFloatReduceAdd            0      0.00%     72.22% # Class of committed instruction. (Count)
system.cpu.commitStats0.committedInstType::SimdFloatReduceCmp            0      0.00%     72.22% # Class of committed instruction. (Count)
system.cpu.commitStats0.committedInstType::SimdAes            0      0.00%     72.22% # Class of committed instruction. (Count)
system.cpu.commitStats0.committedInstType::SimdAesMix            0      0.00%     72.22% # Class of committed instruction. (Count)
system.cpu.commitStats0.committedInstType::SimdSha1Hash            0      0.00%     72.22% # Class of committed instruction. (Count)
system.cpu.commitStats0.committedInstType::SimdSha1Hash2            0      0.00%     72.22% # Class of committed instruction. (Count)
system.cpu.commitStats0.committedInstType::SimdSha256Hash            0      0.00%     72.22% # Class of committed instruction. (Count)
system.cpu.commitStats0.committedInstType::SimdSha256Hash2            0      0.00%     72.22% # Class of committed instruction. (Count)
system.cpu.commitStats0.committedInstType::SimdShaSigma2            0      0.00%     72.22% # Class of committed instruction. (Count)
system.cpu.commitStats0.committedInstType::SimdShaSigma3            0      0.00%     72.22% # Class of committed instruction. (Count)
system.cpu.commitStats0.committedInstType::SimdPredAlu            0      0.00%     72.22% # Class of committed instruction. (Count)
system.cpu.commitStats0.committedInstType::Matrix            0      0.00%     72.22% # Class of committed instruction. (Count)
system.cpu.commitStats0.committedInstType::MatrixMov            0      0.00%     72.22% # Class of committed instruction. (Count)
system.cpu.commitStats0.committedInstType::MatrixOP            0      0.00%     72.22% # Class of committed instruction. (Count)
system.cpu.commitStats0.committedInstType::MemRead            5     27.78%    100.00% # Class of committed instruction. (Count)
system.cpu.commitStats0.committedInstType::MemWrite            0      0.00%    100.00% # Class of committed instruction. (Count)
system.cpu.commitStats0.committedInstType::FloatMemRead            0      0.00%    100.00% # Class of committed instruction. (Count)
system.cpu.commitStats0.committedInstType::FloatMemWrite            0      0.00%    100.00% # Class of committed instruction. (Count)
system.cpu.commitStats0.committedInstType::IprAccess            0      0.00%    100.00% # Class of committed instruction. (Count)
system.cpu.commitStats0.committedInstType::InstPrefetch            0      0.00%    100.00% # Class of committed instruction. (Count)
system.cpu.commitStats0.committedInstType::VectorUnitStrideLoad            0      0.00%    100.00% # Class of committed instruction. (Count)
system.cpu.commitStats0.committedInstType::VectorUnitStrideStore            0      0.00%    100.00% # Class of committed instruction. (Count)
system.cpu.commitStats0.committedInstType::VectorUnitStrideMaskLoad            0      0.00%    100.00% # Class of committed instruction. (Count)
system.cpu.commitStats0.committedInstType::VectorUnitStrideMaskStore            0      0.00%    100.00% # Class of committed instruction. (Count)
system.cpu.commitStats0.committedInstType::VectorStridedLoad            0      0.00%    100.00% # Class of committed instruction. (Count)
system.cpu.commitStats0.committedInstType::VectorStridedStore            0      0.00%    100.00% # Class of committed instruction. (Count)
system.cpu.commitStats0.committedInstType::VectorIndexedLoad            0      0.00%    100.00% # Class of committed instruction. (Count)
system.cpu.commitStats0.committedInstType::VectorIndexedStore            0      0.00%    100.00% # Class of committed instruction. (Count)
system.cpu.commitStats0.committedInstType::VectorUnitStrideFaultOnlyFirstLoad            0      0.00%    100.00% # Class of committed instruction. (Count)
system.cpu.commitStats0.committedInstType::VectorWholeRegisterLoad            0      0.00%    100.00% # Class of committed instruction. (Count)
system.cpu.commitStats0.committedInstType::VectorWholeRegisterStore            0      0.00%    100.00% # Class of committed instruction. (Count)
system.cpu.commitStats0.committedInstType::VectorIntegerArith            0      0.00%    100.00% # Class of committed instruction. (Count)
system.cpu.commitStats0.committedInstType::VectorFloatArith            0      0.00%    100.00% # Class of committed instruction. (Count)
system.cpu.commitStats0.committedInstType::VectorFloatConvert            0      0.00%    100.00% # Class of committed instruction. (Count)
system.cpu.commitStats0.committedInstType::VectorIntegerReduce            0      0.00%    100.00% # Class of committed instruction. (Count)
system.cpu.commitStats0.committedInstType::VectorFloatReduce            0      0.00%    100.00% # Class of committed instruction. (Count)
system.cpu.commitStats0.committedInstType::VectorMisc            0      0.00%    100.00% # Class of committed instruction. (Count)
system.cpu.commitStats0.committedInstType::VectorIntegerExtension            0      0.00%    100.00% # Class of committed instruction. (Count)
system.cpu.commitStats0.committedInstType::VectorConfig            0      0.00%    100.00% # Class of committed instruction. (Count)
system.cpu.commitStats0.committedInstType::total           18                       # Class of committed instruction. (Count)
system.cpu.commitStats0.committedControl::IsControl            2                       # Class of control type instructions committed (Count)
system.cpu.commitStats0.committedControl::IsDirectControl            1                       # Class of control type instructions committed (Count)
system.cpu.commitStats0.committedControl::IsIndirectControl            1                       # Class of control type instructions committed (Count)
system.cpu.commitStats0.committedControl::IsCondControl            1                       # Class of control type instructions committed (Count)
system.cpu.commitStats0.committedControl::IsUncondControl            1                       # Class of control type instructions committed (Count)
system.cpu.commitStats0.committedControl::IsReturn            1                       # Class of control type instructions committed (Count)
system.cpu.dcache.demandHits::cpu.data              2                       # number of demand (read+write) hits (Count)
system.cpu.dcache.demandHits::switch_cpus.data    122348392                       # number of demand (read+write) hits (Count)
system.cpu.dcache.demandHits::total         122348394                       # number of demand (read+write) hits (Count)
system.cpu.dcache.overallHits::cpu.data             2                       # number of overall hits (Count)
system.cpu.dcache.overallHits::switch_cpus.data    122351592                       # number of overall hits (Count)
system.cpu.dcache.overallHits::total        122351594                       # number of overall hits (Count)
system.cpu.dcache.demandMisses::cpu.data            3                       # number of demand (read+write) misses (Count)
system.cpu.dcache.demandMisses::switch_cpus.data     13607156                       # number of demand (read+write) misses (Count)
system.cpu.dcache.demandMisses::total        13607159                       # number of demand (read+write) misses (Count)
system.cpu.dcache.overallMisses::cpu.data            3                       # number of overall misses (Count)
system.cpu.dcache.overallMisses::switch_cpus.data     13608410                       # number of overall misses (Count)
system.cpu.dcache.overallMisses::total       13608413                       # number of overall misses (Count)
system.cpu.dcache.demandMissLatency::switch_cpus.data 718101310741                       # number of demand (read+write) miss ticks (Tick)
system.cpu.dcache.demandMissLatency::total 718101310741                       # number of demand (read+write) miss ticks (Tick)
system.cpu.dcache.overallMissLatency::switch_cpus.data 718101310741                       # number of overall miss ticks (Tick)
system.cpu.dcache.overallMissLatency::total 718101310741                       # number of overall miss ticks (Tick)
system.cpu.dcache.demandAccesses::cpu.data            5                       # number of demand (read+write) accesses (Count)
system.cpu.dcache.demandAccesses::switch_cpus.data    135955548                       # number of demand (read+write) accesses (Count)
system.cpu.dcache.demandAccesses::total     135955553                       # number of demand (read+write) accesses (Count)
system.cpu.dcache.overallAccesses::cpu.data            5                       # number of overall (read+write) accesses (Count)
system.cpu.dcache.overallAccesses::switch_cpus.data    135960002                       # number of overall (read+write) accesses (Count)
system.cpu.dcache.overallAccesses::total    135960007                       # number of overall (read+write) accesses (Count)
system.cpu.dcache.demandMissRate::cpu.data     0.600000                       # miss rate for demand accesses (Ratio)
system.cpu.dcache.demandMissRate::switch_cpus.data     0.100085                       # miss rate for demand accesses (Ratio)
system.cpu.dcache.demandMissRate::total      0.100085                       # miss rate for demand accesses (Ratio)
system.cpu.dcache.overallMissRate::cpu.data     0.600000                       # miss rate for overall accesses (Ratio)
system.cpu.dcache.overallMissRate::switch_cpus.data     0.100091                       # miss rate for overall accesses (Ratio)
system.cpu.dcache.overallMissRate::total     0.100091                       # miss rate for overall accesses (Ratio)
system.cpu.dcache.demandAvgMissLatency::switch_cpus.data 52773.798635                       # average overall miss latency in ticks ((Tick/Count))
system.cpu.dcache.demandAvgMissLatency::total 52773.787000                       # average overall miss latency in ticks ((Tick/Count))
system.cpu.dcache.overallAvgMissLatency::switch_cpus.data 52768.935588                       # average overall miss latency ((Tick/Count))
system.cpu.dcache.overallAvgMissLatency::total 52768.923955                       # average overall miss latency ((Tick/Count))
system.cpu.dcache.blockedCycles::no_mshrs      5581610                       # number of cycles access was blocked (Cycle)
system.cpu.dcache.blockedCycles::no_targets      3396925                       # number of cycles access was blocked (Cycle)
system.cpu.dcache.blockedCauses::no_mshrs       105663                       # number of times access was blocked (Count)
system.cpu.dcache.blockedCauses::no_targets        64642                       # number of times access was blocked (Count)
system.cpu.dcache.avgBlocked::no_mshrs      52.824641                       # average number of cycles each access was blocked ((Cycle/Count))
system.cpu.dcache.avgBlocked::no_targets    52.549813                       # average number of cycles each access was blocked ((Cycle/Count))
system.cpu.dcache.writebacks::writebacks       633605                       # number of writebacks (Count)
system.cpu.dcache.writebacks::total            633605                       # number of writebacks (Count)
system.cpu.dcache.demandMshrHits::switch_cpus.data     11029165                       # number of demand (read+write) MSHR hits (Count)
system.cpu.dcache.demandMshrHits::total      11029165                       # number of demand (read+write) MSHR hits (Count)
system.cpu.dcache.overallMshrHits::switch_cpus.data     11029165                       # number of overall MSHR hits (Count)
system.cpu.dcache.overallMshrHits::total     11029165                       # number of overall MSHR hits (Count)
system.cpu.dcache.demandMshrMisses::switch_cpus.data      2577991                       # number of demand (read+write) MSHR misses (Count)
system.cpu.dcache.demandMshrMisses::total      2577991                       # number of demand (read+write) MSHR misses (Count)
system.cpu.dcache.overallMshrMisses::switch_cpus.data      2579203                       # number of overall MSHR misses (Count)
system.cpu.dcache.overallMshrMisses::total      2579203                       # number of overall MSHR misses (Count)
system.cpu.dcache.overallMshrUncacheable::switch_cpus.data         5233                       # number of overall MSHR uncacheable misses (Count)
system.cpu.dcache.overallMshrUncacheable::total         5233                       # number of overall MSHR uncacheable misses (Count)
system.cpu.dcache.demandMshrMissLatency::switch_cpus.data 167806768248                       # number of demand (read+write) MSHR miss ticks (Tick)
system.cpu.dcache.demandMshrMissLatency::total 167806768248                       # number of demand (read+write) MSHR miss ticks (Tick)
system.cpu.dcache.overallMshrMissLatency::switch_cpus.data 167897102748                       # number of overall MSHR miss ticks (Tick)
system.cpu.dcache.overallMshrMissLatency::total 167897102748                       # number of overall MSHR miss ticks (Tick)
system.cpu.dcache.overallMshrUncacheableLatency::switch_cpus.data    460388000                       # number of overall MSHR uncacheable ticks (Tick)
system.cpu.dcache.overallMshrUncacheableLatency::total    460388000                       # number of overall MSHR uncacheable ticks (Tick)
system.cpu.dcache.demandMshrMissRate::switch_cpus.data     0.018962                       # mshr miss ratio for demand accesses (Ratio)
system.cpu.dcache.demandMshrMissRate::total     0.018962                       # mshr miss ratio for demand accesses (Ratio)
system.cpu.dcache.overallMshrMissRate::switch_cpus.data     0.018970                       # mshr miss ratio for overall accesses (Ratio)
system.cpu.dcache.overallMshrMissRate::total     0.018970                       # mshr miss ratio for overall accesses (Ratio)
system.cpu.dcache.demandAvgMshrMissLatency::switch_cpus.data 65092.069075                       # average overall mshr miss latency ((Tick/Count))
system.cpu.dcache.demandAvgMshrMissLatency::total 65092.069075                       # average overall mshr miss latency ((Tick/Count))
system.cpu.dcache.overallAvgMshrMissLatency::switch_cpus.data 65096.505683                       # average overall mshr miss latency ((Tick/Count))
system.cpu.dcache.overallAvgMshrMissLatency::total 65096.505683                       # average overall mshr miss latency ((Tick/Count))
system.cpu.dcache.overallAvgMshrUncacheableLatency::switch_cpus.data 87977.832983                       # average overall mshr uncacheable latency ((Tick/Count))
system.cpu.dcache.overallAvgMshrUncacheableLatency::total 87977.832983                       # average overall mshr uncacheable latency ((Tick/Count))
system.cpu.dcache.replacements                2670378                       # number of replacements (Count)
system.cpu.dcache.LockedRMWReadReq.hits::switch_cpus.data       436365                       # number of LockedRMWReadReq hits (Count)
system.cpu.dcache.LockedRMWReadReq.hits::total       436365                       # number of LockedRMWReadReq hits (Count)
system.cpu.dcache.LockedRMWReadReq.misses::switch_cpus.data        94101                       # number of LockedRMWReadReq misses (Count)
system.cpu.dcache.LockedRMWReadReq.misses::total        94101                       # number of LockedRMWReadReq misses (Count)
system.cpu.dcache.LockedRMWReadReq.missLatency::switch_cpus.data   6752714500                       # number of LockedRMWReadReq miss ticks (Tick)
system.cpu.dcache.LockedRMWReadReq.missLatency::total   6752714500                       # number of LockedRMWReadReq miss ticks (Tick)
system.cpu.dcache.LockedRMWReadReq.accesses::switch_cpus.data       530466                       # number of LockedRMWReadReq accesses(hits+misses) (Count)
system.cpu.dcache.LockedRMWReadReq.accesses::total       530466                       # number of LockedRMWReadReq accesses(hits+misses) (Count)
system.cpu.dcache.LockedRMWReadReq.missRate::switch_cpus.data     0.177393                       # miss rate for LockedRMWReadReq accesses (Ratio)
system.cpu.dcache.LockedRMWReadReq.missRate::total     0.177393                       # miss rate for LockedRMWReadReq accesses (Ratio)
system.cpu.dcache.LockedRMWReadReq.avgMissLatency::switch_cpus.data 71760.284163                       # average LockedRMWReadReq miss latency ((Tick/Count))
system.cpu.dcache.LockedRMWReadReq.avgMissLatency::total 71760.284163                       # average LockedRMWReadReq miss latency ((Tick/Count))
system.cpu.dcache.LockedRMWReadReq.mshrMisses::switch_cpus.data        94101                       # number of LockedRMWReadReq MSHR misses (Count)
system.cpu.dcache.LockedRMWReadReq.mshrMisses::total        94101                       # number of LockedRMWReadReq MSHR misses (Count)
system.cpu.dcache.LockedRMWReadReq.mshrMissLatency::switch_cpus.data  15438083000                       # number of LockedRMWReadReq MSHR miss ticks (Tick)
system.cpu.dcache.LockedRMWReadReq.mshrMissLatency::total  15438083000                       # number of LockedRMWReadReq MSHR miss ticks (Tick)
system.cpu.dcache.LockedRMWReadReq.mshrMissRate::switch_cpus.data     0.177393                       # mshr miss rate for LockedRMWReadReq accesses (Ratio)
system.cpu.dcache.LockedRMWReadReq.mshrMissRate::total     0.177393                       # mshr miss rate for LockedRMWReadReq accesses (Ratio)
system.cpu.dcache.LockedRMWReadReq.avgMshrMissLatency::switch_cpus.data 164058.649749                       # average LockedRMWReadReq mshr miss latency ((Tick/Count))
system.cpu.dcache.LockedRMWReadReq.avgMshrMissLatency::total 164058.649749                       # average LockedRMWReadReq mshr miss latency ((Tick/Count))
system.cpu.dcache.LockedRMWWriteReq.hits::switch_cpus.data       530466                       # number of LockedRMWWriteReq hits (Count)
system.cpu.dcache.LockedRMWWriteReq.hits::total       530466                       # number of LockedRMWWriteReq hits (Count)
system.cpu.dcache.LockedRMWWriteReq.accesses::switch_cpus.data       530466                       # number of LockedRMWWriteReq accesses(hits+misses) (Count)
system.cpu.dcache.LockedRMWWriteReq.accesses::total       530466                       # number of LockedRMWWriteReq accesses(hits+misses) (Count)
system.cpu.dcache.ReadReq.hits::cpu.data            2                       # number of ReadReq hits (Count)
system.cpu.dcache.ReadReq.hits::switch_cpus.data    103669842                       # number of ReadReq hits (Count)
system.cpu.dcache.ReadReq.hits::total       103669844                       # number of ReadReq hits (Count)
system.cpu.dcache.ReadReq.misses::cpu.data            3                       # number of ReadReq misses (Count)
system.cpu.dcache.ReadReq.misses::switch_cpus.data     13207198                       # number of ReadReq misses (Count)
system.cpu.dcache.ReadReq.misses::total      13207201                       # number of ReadReq misses (Count)
system.cpu.dcache.ReadReq.missLatency::switch_cpus.data 690874252500                       # number of ReadReq miss ticks (Tick)
system.cpu.dcache.ReadReq.missLatency::total 690874252500                       # number of ReadReq miss ticks (Tick)
system.cpu.dcache.ReadReq.accesses::cpu.data            5                       # number of ReadReq accesses(hits+misses) (Count)
system.cpu.dcache.ReadReq.accesses::switch_cpus.data    116877040                       # number of ReadReq accesses(hits+misses) (Count)
system.cpu.dcache.ReadReq.accesses::total    116877045                       # number of ReadReq accesses(hits+misses) (Count)
system.cpu.dcache.ReadReq.missRate::cpu.data     0.600000                       # miss rate for ReadReq accesses (Ratio)
system.cpu.dcache.ReadReq.missRate::switch_cpus.data     0.113001                       # miss rate for ReadReq accesses (Ratio)
system.cpu.dcache.ReadReq.missRate::total     0.113001                       # miss rate for ReadReq accesses (Ratio)
system.cpu.dcache.ReadReq.avgMissLatency::switch_cpus.data 52310.433485                       # average ReadReq miss latency ((Tick/Count))
system.cpu.dcache.ReadReq.avgMissLatency::total 52310.421603                       # average ReadReq miss latency ((Tick/Count))
system.cpu.dcache.ReadReq.mshrHits::switch_cpus.data     11027898                       # number of ReadReq MSHR hits (Count)
system.cpu.dcache.ReadReq.mshrHits::total     11027898                       # number of ReadReq MSHR hits (Count)
system.cpu.dcache.ReadReq.mshrMisses::switch_cpus.data      2179300                       # number of ReadReq MSHR misses (Count)
system.cpu.dcache.ReadReq.mshrMisses::total      2179300                       # number of ReadReq MSHR misses (Count)
system.cpu.dcache.ReadReq.mshrUncacheable::switch_cpus.data         2327                       # number of ReadReq MSHR uncacheable (Count)
system.cpu.dcache.ReadReq.mshrUncacheable::total         2327                       # number of ReadReq MSHR uncacheable (Count)
system.cpu.dcache.ReadReq.mshrMissLatency::switch_cpus.data 141047157500                       # number of ReadReq MSHR miss ticks (Tick)
system.cpu.dcache.ReadReq.mshrMissLatency::total 141047157500                       # number of ReadReq MSHR miss ticks (Tick)
system.cpu.dcache.ReadReq.mshrUncacheableLatency::switch_cpus.data    460388000                       # number of ReadReq MSHR uncacheable ticks (Tick)
system.cpu.dcache.ReadReq.mshrUncacheableLatency::total    460388000                       # number of ReadReq MSHR uncacheable ticks (Tick)
system.cpu.dcache.ReadReq.mshrMissRate::switch_cpus.data     0.018646                       # mshr miss rate for ReadReq accesses (Ratio)
system.cpu.dcache.ReadReq.mshrMissRate::total     0.018646                       # mshr miss rate for ReadReq accesses (Ratio)
system.cpu.dcache.ReadReq.avgMshrMissLatency::switch_cpus.data 64721.313036                       # average ReadReq mshr miss latency ((Tick/Count))
system.cpu.dcache.ReadReq.avgMshrMissLatency::total 64721.313036                       # average ReadReq mshr miss latency ((Tick/Count))
system.cpu.dcache.ReadReq.avgMshrUncacheableLatency::switch_cpus.data 197846.153846                       # average ReadReq mshr uncacheable latency ((Tick/Count))
system.cpu.dcache.ReadReq.avgMshrUncacheableLatency::total 197846.153846                       # average ReadReq mshr uncacheable latency ((Tick/Count))
system.cpu.dcache.SoftPFReq.hits::switch_cpus.data         3200                       # number of SoftPFReq hits (Count)
system.cpu.dcache.SoftPFReq.hits::total          3200                       # number of SoftPFReq hits (Count)
system.cpu.dcache.SoftPFReq.misses::switch_cpus.data         1254                       # number of SoftPFReq misses (Count)
system.cpu.dcache.SoftPFReq.misses::total         1254                       # number of SoftPFReq misses (Count)
system.cpu.dcache.SoftPFReq.accesses::switch_cpus.data         4454                       # number of SoftPFReq accesses(hits+misses) (Count)
system.cpu.dcache.SoftPFReq.accesses::total         4454                       # number of SoftPFReq accesses(hits+misses) (Count)
system.cpu.dcache.SoftPFReq.missRate::switch_cpus.data     0.281545                       # miss rate for SoftPFReq accesses (Ratio)
system.cpu.dcache.SoftPFReq.missRate::total     0.281545                       # miss rate for SoftPFReq accesses (Ratio)
system.cpu.dcache.SoftPFReq.mshrMisses::switch_cpus.data         1212                       # number of SoftPFReq MSHR misses (Count)
system.cpu.dcache.SoftPFReq.mshrMisses::total         1212                       # number of SoftPFReq MSHR misses (Count)
system.cpu.dcache.SoftPFReq.mshrMissLatency::switch_cpus.data     90334500                       # number of SoftPFReq MSHR miss ticks (Tick)
system.cpu.dcache.SoftPFReq.mshrMissLatency::total     90334500                       # number of SoftPFReq MSHR miss ticks (Tick)
system.cpu.dcache.SoftPFReq.mshrMissRate::switch_cpus.data     0.272115                       # mshr miss rate for SoftPFReq accesses (Ratio)
system.cpu.dcache.SoftPFReq.mshrMissRate::total     0.272115                       # mshr miss rate for SoftPFReq accesses (Ratio)
system.cpu.dcache.SoftPFReq.avgMshrMissLatency::switch_cpus.data 74533.415842                       # average SoftPFReq mshr miss latency ((Tick/Count))
system.cpu.dcache.SoftPFReq.avgMshrMissLatency::total 74533.415842                       # average SoftPFReq mshr miss latency ((Tick/Count))
system.cpu.dcache.WriteReq.hits::switch_cpus.data     18678550                       # number of WriteReq hits (Count)
system.cpu.dcache.WriteReq.hits::total       18678550                       # number of WriteReq hits (Count)
system.cpu.dcache.WriteReq.misses::switch_cpus.data       399958                       # number of WriteReq misses (Count)
system.cpu.dcache.WriteReq.misses::total       399958                       # number of WriteReq misses (Count)
system.cpu.dcache.WriteReq.missLatency::switch_cpus.data  27227058241                       # number of WriteReq miss ticks (Tick)
system.cpu.dcache.WriteReq.missLatency::total  27227058241                       # number of WriteReq miss ticks (Tick)
system.cpu.dcache.WriteReq.accesses::switch_cpus.data     19078508                       # number of WriteReq accesses(hits+misses) (Count)
system.cpu.dcache.WriteReq.accesses::total     19078508                       # number of WriteReq accesses(hits+misses) (Count)
system.cpu.dcache.WriteReq.missRate::switch_cpus.data     0.020964                       # miss rate for WriteReq accesses (Ratio)
system.cpu.dcache.WriteReq.missRate::total     0.020964                       # miss rate for WriteReq accesses (Ratio)
system.cpu.dcache.WriteReq.avgMissLatency::switch_cpus.data 68074.793456                       # average WriteReq miss latency ((Tick/Count))
system.cpu.dcache.WriteReq.avgMissLatency::total 68074.793456                       # average WriteReq miss latency ((Tick/Count))
system.cpu.dcache.WriteReq.mshrHits::switch_cpus.data         1267                       # number of WriteReq MSHR hits (Count)
system.cpu.dcache.WriteReq.mshrHits::total         1267                       # number of WriteReq MSHR hits (Count)
system.cpu.dcache.WriteReq.mshrMisses::switch_cpus.data       398691                       # number of WriteReq MSHR misses (Count)
system.cpu.dcache.WriteReq.mshrMisses::total       398691                       # number of WriteReq MSHR misses (Count)
system.cpu.dcache.WriteReq.mshrUncacheable::switch_cpus.data         2906                       # number of WriteReq MSHR uncacheable (Count)
system.cpu.dcache.WriteReq.mshrUncacheable::total         2906                       # number of WriteReq MSHR uncacheable (Count)
system.cpu.dcache.WriteReq.mshrMissLatency::switch_cpus.data  26759610748                       # number of WriteReq MSHR miss ticks (Tick)
system.cpu.dcache.WriteReq.mshrMissLatency::total  26759610748                       # number of WriteReq MSHR miss ticks (Tick)
system.cpu.dcache.WriteReq.mshrMissRate::switch_cpus.data     0.020897                       # mshr miss rate for WriteReq accesses (Ratio)
system.cpu.dcache.WriteReq.mshrMissRate::total     0.020897                       # mshr miss rate for WriteReq accesses (Ratio)
system.cpu.dcache.WriteReq.avgMshrMissLatency::switch_cpus.data 67118.672726                       # average WriteReq mshr miss latency ((Tick/Count))
system.cpu.dcache.WriteReq.avgMshrMissLatency::total 67118.672726                       # average WriteReq mshr miss latency ((Tick/Count))
system.cpu.dcache.power_state.pwrStateResidencyTicks::UNDEFINED 7043507371000                       # Cumulative time (in ticks) in various power states (Tick)
system.cpu.dcache.tags.tagsInUse          1023.799265                       # Average ticks per tags in use ((Tick/Count))
system.cpu.dcache.tags.totalRefs            125991755                       # Total number of references to valid blocks. (Count)
system.cpu.dcache.tags.sampledRefs            2671414                       # Sample count of references to valid blocks. (Count)
system.cpu.dcache.tags.avgRefs              47.162946                       # Average number of references to valid blocks. ((Count/Count))
system.cpu.dcache.tags.warmupTick        6166815236500                       # The tick when the warmup percentage was hit. (Tick)
system.cpu.dcache.tags.occupancies::cpu.data     0.000679                       # Average occupied blocks per tick, per requestor ((Count/Tick))
system.cpu.dcache.tags.occupancies::switch_cpus.data  1023.798586                       # Average occupied blocks per tick, per requestor ((Count/Tick))
system.cpu.dcache.tags.avgOccs::cpu.data     0.000001                       # Average percentage of cache occupancy ((Ratio/Tick))
system.cpu.dcache.tags.avgOccs::switch_cpus.data     0.999803                       # Average percentage of cache occupancy ((Ratio/Tick))
system.cpu.dcache.tags.avgOccs::total        0.999804                       # Average percentage of cache occupancy ((Ratio/Tick))
system.cpu.dcache.tags.occupanciesTaskId::1024         1024                       # Occupied blocks per task id (Count)
system.cpu.dcache.tags.ageTaskId_1024::0           41                       # Occupied blocks per task id, per block age (Count)
system.cpu.dcache.tags.ageTaskId_1024::1          395                       # Occupied blocks per task id, per block age (Count)
system.cpu.dcache.tags.ageTaskId_1024::2          577                       # Occupied blocks per task id, per block age (Count)
system.cpu.dcache.tags.ageTaskId_1024::3           11                       # Occupied blocks per task id, per block age (Count)
system.cpu.dcache.tags.ratioOccsTaskId::1024            1                       # Ratio of occupied blocks and all blocks, per task id (Ratio)
system.cpu.dcache.tags.tagAccesses          276713292                       # Number of tag accesses (Count)
system.cpu.dcache.tags.dataAccesses         276713292                       # Number of data accesses (Count)
system.cpu.dcache.tags.power_state.pwrStateResidencyTicks::UNDEFINED 7043507371000                       # Cumulative time (in ticks) in various power states (Tick)
system.cpu.dtb_walker_cache.demandHits::switch_cpus.mmu.dtb.walker      3715960                       # number of demand (read+write) hits (Count)
system.cpu.dtb_walker_cache.demandHits::total      3715960                       # number of demand (read+write) hits (Count)
system.cpu.dtb_walker_cache.overallHits::switch_cpus.mmu.dtb.walker      3715960                       # number of overall hits (Count)
system.cpu.dtb_walker_cache.overallHits::total      3715960                       # number of overall hits (Count)
system.cpu.dtb_walker_cache.demandMisses::switch_cpus.mmu.dtb.walker     10285147                       # number of demand (read+write) misses (Count)
system.cpu.dtb_walker_cache.demandMisses::total     10285147                       # number of demand (read+write) misses (Count)
system.cpu.dtb_walker_cache.overallMisses::switch_cpus.mmu.dtb.walker     10285147                       # number of overall misses (Count)
system.cpu.dtb_walker_cache.overallMisses::total     10285147                       # number of overall misses (Count)
system.cpu.dtb_walker_cache.demandMissLatency::switch_cpus.mmu.dtb.walker 572045134000                       # number of demand (read+write) miss ticks (Tick)
system.cpu.dtb_walker_cache.demandMissLatency::total 572045134000                       # number of demand (read+write) miss ticks (Tick)
system.cpu.dtb_walker_cache.overallMissLatency::switch_cpus.mmu.dtb.walker 572045134000                       # number of overall miss ticks (Tick)
system.cpu.dtb_walker_cache.overallMissLatency::total 572045134000                       # number of overall miss ticks (Tick)
system.cpu.dtb_walker_cache.demandAccesses::switch_cpus.mmu.dtb.walker     14001107                       # number of demand (read+write) accesses (Count)
system.cpu.dtb_walker_cache.demandAccesses::total     14001107                       # number of demand (read+write) accesses (Count)
system.cpu.dtb_walker_cache.overallAccesses::switch_cpus.mmu.dtb.walker     14001107                       # number of overall (read+write) accesses (Count)
system.cpu.dtb_walker_cache.overallAccesses::total     14001107                       # number of overall (read+write) accesses (Count)
system.cpu.dtb_walker_cache.demandMissRate::switch_cpus.mmu.dtb.walker     0.734595                       # miss rate for demand accesses (Ratio)
system.cpu.dtb_walker_cache.demandMissRate::total     0.734595                       # miss rate for demand accesses (Ratio)
system.cpu.dtb_walker_cache.overallMissRate::switch_cpus.mmu.dtb.walker     0.734595                       # miss rate for overall accesses (Ratio)
system.cpu.dtb_walker_cache.overallMissRate::total     0.734595                       # miss rate for overall accesses (Ratio)
system.cpu.dtb_walker_cache.demandAvgMissLatency::switch_cpus.mmu.dtb.walker 55618.566657                       # average overall miss latency in ticks ((Tick/Count))
system.cpu.dtb_walker_cache.demandAvgMissLatency::total 55618.566657                       # average overall miss latency in ticks ((Tick/Count))
system.cpu.dtb_walker_cache.overallAvgMissLatency::switch_cpus.mmu.dtb.walker 55618.566657                       # average overall miss latency ((Tick/Count))
system.cpu.dtb_walker_cache.overallAvgMissLatency::total 55618.566657                       # average overall miss latency ((Tick/Count))
system.cpu.dtb_walker_cache.blockedCycles::no_mshrs            0                       # number of cycles access was blocked (Cycle)
system.cpu.dtb_walker_cache.blockedCycles::no_targets            0                       # number of cycles access was blocked (Cycle)
system.cpu.dtb_walker_cache.blockedCauses::no_mshrs            0                       # number of times access was blocked (Count)
system.cpu.dtb_walker_cache.blockedCauses::no_targets            0                       # number of times access was blocked (Count)
system.cpu.dtb_walker_cache.avgBlocked::no_mshrs          nan                       # average number of cycles each access was blocked ((Cycle/Count))
system.cpu.dtb_walker_cache.avgBlocked::no_targets          nan                       # average number of cycles each access was blocked ((Cycle/Count))
system.cpu.dtb_walker_cache.demandMshrMisses::switch_cpus.mmu.dtb.walker     10285147                       # number of demand (read+write) MSHR misses (Count)
system.cpu.dtb_walker_cache.demandMshrMisses::total     10285147                       # number of demand (read+write) MSHR misses (Count)
system.cpu.dtb_walker_cache.overallMshrMisses::switch_cpus.mmu.dtb.walker     10285147                       # number of overall MSHR misses (Count)
system.cpu.dtb_walker_cache.overallMshrMisses::total     10285147                       # number of overall MSHR misses (Count)
system.cpu.dtb_walker_cache.demandMshrMissLatency::switch_cpus.mmu.dtb.walker 561759987000                       # number of demand (read+write) MSHR miss ticks (Tick)
system.cpu.dtb_walker_cache.demandMshrMissLatency::total 561759987000                       # number of demand (read+write) MSHR miss ticks (Tick)
system.cpu.dtb_walker_cache.overallMshrMissLatency::switch_cpus.mmu.dtb.walker 561759987000                       # number of overall MSHR miss ticks (Tick)
system.cpu.dtb_walker_cache.overallMshrMissLatency::total 561759987000                       # number of overall MSHR miss ticks (Tick)
system.cpu.dtb_walker_cache.demandMshrMissRate::switch_cpus.mmu.dtb.walker     0.734595                       # mshr miss ratio for demand accesses (Ratio)
system.cpu.dtb_walker_cache.demandMshrMissRate::total     0.734595                       # mshr miss ratio for demand accesses (Ratio)
system.cpu.dtb_walker_cache.overallMshrMissRate::switch_cpus.mmu.dtb.walker     0.734595                       # mshr miss ratio for overall accesses (Ratio)
system.cpu.dtb_walker_cache.overallMshrMissRate::total     0.734595                       # mshr miss ratio for overall accesses (Ratio)
system.cpu.dtb_walker_cache.demandAvgMshrMissLatency::switch_cpus.mmu.dtb.walker 54618.566657                       # average overall mshr miss latency ((Tick/Count))
system.cpu.dtb_walker_cache.demandAvgMshrMissLatency::total 54618.566657                       # average overall mshr miss latency ((Tick/Count))
system.cpu.dtb_walker_cache.overallAvgMshrMissLatency::switch_cpus.mmu.dtb.walker 54618.566657                       # average overall mshr miss latency ((Tick/Count))
system.cpu.dtb_walker_cache.overallAvgMshrMissLatency::total 54618.566657                       # average overall mshr miss latency ((Tick/Count))
system.cpu.dtb_walker_cache.replacements     10283776                       # number of replacements (Count)
system.cpu.dtb_walker_cache.ReadReq.hits::switch_cpus.mmu.dtb.walker      3715960                       # number of ReadReq hits (Count)
system.cpu.dtb_walker_cache.ReadReq.hits::total      3715960                       # number of ReadReq hits (Count)
system.cpu.dtb_walker_cache.ReadReq.misses::switch_cpus.mmu.dtb.walker     10285147                       # number of ReadReq misses (Count)
system.cpu.dtb_walker_cache.ReadReq.misses::total     10285147                       # number of ReadReq misses (Count)
system.cpu.dtb_walker_cache.ReadReq.missLatency::switch_cpus.mmu.dtb.walker 572045134000                       # number of ReadReq miss ticks (Tick)
system.cpu.dtb_walker_cache.ReadReq.missLatency::total 572045134000                       # number of ReadReq miss ticks (Tick)
system.cpu.dtb_walker_cache.ReadReq.accesses::switch_cpus.mmu.dtb.walker     14001107                       # number of ReadReq accesses(hits+misses) (Count)
system.cpu.dtb_walker_cache.ReadReq.accesses::total     14001107                       # number of ReadReq accesses(hits+misses) (Count)
system.cpu.dtb_walker_cache.ReadReq.missRate::switch_cpus.mmu.dtb.walker     0.734595                       # miss rate for ReadReq accesses (Ratio)
system.cpu.dtb_walker_cache.ReadReq.missRate::total     0.734595                       # miss rate for ReadReq accesses (Ratio)
system.cpu.dtb_walker_cache.ReadReq.avgMissLatency::switch_cpus.mmu.dtb.walker 55618.566657                       # average ReadReq miss latency ((Tick/Count))
system.cpu.dtb_walker_cache.ReadReq.avgMissLatency::total 55618.566657                       # average ReadReq miss latency ((Tick/Count))
system.cpu.dtb_walker_cache.ReadReq.mshrMisses::switch_cpus.mmu.dtb.walker     10285147                       # number of ReadReq MSHR misses (Count)
system.cpu.dtb_walker_cache.ReadReq.mshrMisses::total     10285147                       # number of ReadReq MSHR misses (Count)
system.cpu.dtb_walker_cache.ReadReq.mshrMissLatency::switch_cpus.mmu.dtb.walker 561759987000                       # number of ReadReq MSHR miss ticks (Tick)
system.cpu.dtb_walker_cache.ReadReq.mshrMissLatency::total 561759987000                       # number of ReadReq MSHR miss ticks (Tick)
system.cpu.dtb_walker_cache.ReadReq.mshrMissRate::switch_cpus.mmu.dtb.walker     0.734595                       # mshr miss rate for ReadReq accesses (Ratio)
system.cpu.dtb_walker_cache.ReadReq.mshrMissRate::total     0.734595                       # mshr miss rate for ReadReq accesses (Ratio)
system.cpu.dtb_walker_cache.ReadReq.avgMshrMissLatency::switch_cpus.mmu.dtb.walker 54618.566657                       # average ReadReq mshr miss latency ((Tick/Count))
system.cpu.dtb_walker_cache.ReadReq.avgMshrMissLatency::total 54618.566657                       # average ReadReq mshr miss latency ((Tick/Count))
system.cpu.dtb_walker_cache.power_state.pwrStateResidencyTicks::UNDEFINED 7043507371000                       # Cumulative time (in ticks) in various power states (Tick)
system.cpu.dtb_walker_cache.tags.tagsInUse    15.995254                       # Average ticks per tags in use ((Tick/Count))
system.cpu.dtb_walker_cache.tags.totalRefs     14001107                       # Total number of references to valid blocks. (Count)
system.cpu.dtb_walker_cache.tags.sampledRefs     10285147                       # Sample count of references to valid blocks. (Count)
system.cpu.dtb_walker_cache.tags.avgRefs     1.361294                       # Average number of references to valid blocks. ((Count/Count))
system.cpu.dtb_walker_cache.tags.warmupTick 6166815593000                       # The tick when the warmup percentage was hit. (Tick)
system.cpu.dtb_walker_cache.tags.occupancies::switch_cpus.mmu.dtb.walker    15.995254                       # Average occupied blocks per tick, per requestor ((Count/Tick))
system.cpu.dtb_walker_cache.tags.avgOccs::switch_cpus.mmu.dtb.walker     0.999703                       # Average percentage of cache occupancy ((Ratio/Tick))
system.cpu.dtb_walker_cache.tags.avgOccs::total     0.999703                       # Average percentage of cache occupancy ((Ratio/Tick))
system.cpu.dtb_walker_cache.tags.occupanciesTaskId::1024           16                       # Occupied blocks per task id (Count)
system.cpu.dtb_walker_cache.tags.ageTaskId_1024::0            7                       # Occupied blocks per task id, per block age (Count)
system.cpu.dtb_walker_cache.tags.ageTaskId_1024::1            8                       # Occupied blocks per task id, per block age (Count)
system.cpu.dtb_walker_cache.tags.ageTaskId_1024::2            1                       # Occupied blocks per task id, per block age (Count)
system.cpu.dtb_walker_cache.tags.ratioOccsTaskId::1024            1                       # Ratio of occupied blocks and all blocks, per task id (Ratio)
system.cpu.dtb_walker_cache.tags.tagAccesses     38287361                       # Number of tag accesses (Count)
system.cpu.dtb_walker_cache.tags.dataAccesses     38287361                       # Number of data accesses (Count)
system.cpu.dtb_walker_cache.tags.power_state.pwrStateResidencyTicks::UNDEFINED 7043507371000                       # Cumulative time (in ticks) in various power states (Tick)
system.cpu.exec_context.thread_0.numMatAluAccesses            0                       # Number of matrix alu accesses (Count)
system.cpu.exec_context.thread_0.numCallsReturns            1                       # Number of times a function call or return occured (Count)
system.cpu.exec_context.thread_0.numMatInsts            0                       # Number of matrix instructions (Count)
system.cpu.exec_context.thread_0.numIdleCycles            0                       # Number of idle cycles (Cycle)
system.cpu.exec_context.thread_0.numBusyCycles           21                       # Number of busy cycles (Cycle)
system.cpu.exec_context.thread_0.notIdleFraction            1                       # Percentage of non-idle cycles (Ratio)
system.cpu.exec_context.thread_0.idleFraction            0                       # Percentage of idle cycles (Ratio)
system.cpu.executeStats0.numInsts                   0                       # Number of executed instructions (Count)
system.cpu.executeStats0.numNop                     0                       # Number of nop insts executed (Count)
system.cpu.executeStats0.numBranches                0                       # Number of branches executed (Count)
system.cpu.executeStats0.numLoadInsts               0                       # Number of load instructions executed (Count)
system.cpu.executeStats0.numStoreInsts              5                       # Number of stores executed (Count)
system.cpu.executeStats0.instRate                   0                       # Inst execution rate ((Count/Cycle))
system.cpu.executeStats0.numFpRegWrites             0                       # Number of times the floating registers were written (Count)
system.cpu.executeStats0.numIntAluAccesses           18                       # Number of integer alu accesses (Count)
system.cpu.executeStats0.numIntRegReads            20                       # Number of times the integer registers were read (Count)
system.cpu.executeStats0.numIntRegWrites           16                       # Number of times the integer registers were written (Count)
system.cpu.executeStats0.numMemRefs                 5                       # Number of memory refs (Count)
system.cpu.executeStats0.numMiscRegReads            8                       # Number of times the Misc registers were read (Count)
system.cpu.executeStats0.numVecAluAccesses            0                       # Number of vector alu accesses (Count)
system.cpu.executeStats0.numDiscardedOps            0                       # Number of ops (including micro ops) which were discarded before commit (Count)
system.cpu.fetchStats0.numInsts                     8                       # Number of instructions fetched (thread level) (Count)
system.cpu.fetchStats0.numOps                      18                       # Number of ops (including micro ops) fetched (thread level) (Count)
system.cpu.fetchStats0.fetchRate             0.380952                       # Number of inst fetches per cycle ((Count/Cycle))
system.cpu.fetchStats0.numBranches                  2                       # Number of branches fetched (Count)
system.cpu.fetchStats0.branchRate            0.095238                       # Number of branch fetches per cycle (Ratio)
system.cpu.fetchStats0.numFetchSuspends             0                       # Number of times Execute suspended instruction fetching (Count)
system.cpu.icache.demandHits::cpu.inst              9                       # number of demand (read+write) hits (Count)
system.cpu.icache.demandHits::switch_cpus.inst    153457168                       # number of demand (read+write) hits (Count)
system.cpu.icache.demandHits::total         153457177                       # number of demand (read+write) hits (Count)
system.cpu.icache.overallHits::cpu.inst             9                       # number of overall hits (Count)
system.cpu.icache.overallHits::switch_cpus.inst    153457168                       # number of overall hits (Count)
system.cpu.icache.overallHits::total        153457177                       # number of overall hits (Count)
system.cpu.icache.demandMisses::cpu.inst            2                       # number of demand (read+write) misses (Count)
system.cpu.icache.demandMisses::switch_cpus.inst       419493                       # number of demand (read+write) misses (Count)
system.cpu.icache.demandMisses::total          419495                       # number of demand (read+write) misses (Count)
system.cpu.icache.overallMisses::cpu.inst            2                       # number of overall misses (Count)
system.cpu.icache.overallMisses::switch_cpus.inst       419493                       # number of overall misses (Count)
system.cpu.icache.overallMisses::total         419495                       # number of overall misses (Count)
system.cpu.icache.demandMissLatency::switch_cpus.inst  26957333958                       # number of demand (read+write) miss ticks (Tick)
system.cpu.icache.demandMissLatency::total  26957333958                       # number of demand (read+write) miss ticks (Tick)
system.cpu.icache.overallMissLatency::switch_cpus.inst  26957333958                       # number of overall miss ticks (Tick)
system.cpu.icache.overallMissLatency::total  26957333958                       # number of overall miss ticks (Tick)
system.cpu.icache.demandAccesses::cpu.inst           11                       # number of demand (read+write) accesses (Count)
system.cpu.icache.demandAccesses::switch_cpus.inst    153876661                       # number of demand (read+write) accesses (Count)
system.cpu.icache.demandAccesses::total     153876672                       # number of demand (read+write) accesses (Count)
system.cpu.icache.overallAccesses::cpu.inst           11                       # number of overall (read+write) accesses (Count)
system.cpu.icache.overallAccesses::switch_cpus.inst    153876661                       # number of overall (read+write) accesses (Count)
system.cpu.icache.overallAccesses::total    153876672                       # number of overall (read+write) accesses (Count)
system.cpu.icache.demandMissRate::cpu.inst     0.181818                       # miss rate for demand accesses (Ratio)
system.cpu.icache.demandMissRate::switch_cpus.inst     0.002726                       # miss rate for demand accesses (Ratio)
system.cpu.icache.demandMissRate::total      0.002726                       # miss rate for demand accesses (Ratio)
system.cpu.icache.overallMissRate::cpu.inst     0.181818                       # miss rate for overall accesses (Ratio)
system.cpu.icache.overallMissRate::switch_cpus.inst     0.002726                       # miss rate for overall accesses (Ratio)
system.cpu.icache.overallMissRate::total     0.002726                       # miss rate for overall accesses (Ratio)
system.cpu.icache.demandAvgMissLatency::switch_cpus.inst 64261.701525                       # average overall miss latency in ticks ((Tick/Count))
system.cpu.icache.demandAvgMissLatency::total 64261.395149                       # average overall miss latency in ticks ((Tick/Count))
system.cpu.icache.overallAvgMissLatency::switch_cpus.inst 64261.701525                       # average overall miss latency ((Tick/Count))
system.cpu.icache.overallAvgMissLatency::total 64261.395149                       # average overall miss latency ((Tick/Count))
system.cpu.icache.blockedCycles::no_mshrs        46080                       # number of cycles access was blocked (Cycle)
system.cpu.icache.blockedCycles::no_targets            0                       # number of cycles access was blocked (Cycle)
system.cpu.icache.blockedCauses::no_mshrs          704                       # number of times access was blocked (Count)
system.cpu.icache.blockedCauses::no_targets            0                       # number of times access was blocked (Count)
system.cpu.icache.avgBlocked::no_mshrs      65.454545                       # average number of cycles each access was blocked ((Cycle/Count))
system.cpu.icache.avgBlocked::no_targets          nan                       # average number of cycles each access was blocked ((Cycle/Count))
system.cpu.icache.writebacks::writebacks       358172                       # number of writebacks (Count)
system.cpu.icache.writebacks::total            358172                       # number of writebacks (Count)
system.cpu.icache.demandMshrHits::switch_cpus.inst        60810                       # number of demand (read+write) MSHR hits (Count)
system.cpu.icache.demandMshrHits::total         60810                       # number of demand (read+write) MSHR hits (Count)
system.cpu.icache.overallMshrHits::switch_cpus.inst        60810                       # number of overall MSHR hits (Count)
system.cpu.icache.overallMshrHits::total        60810                       # number of overall MSHR hits (Count)
system.cpu.icache.demandMshrMisses::switch_cpus.inst       358683                       # number of demand (read+write) MSHR misses (Count)
system.cpu.icache.demandMshrMisses::total       358683                       # number of demand (read+write) MSHR misses (Count)
system.cpu.icache.overallMshrMisses::switch_cpus.inst       358683                       # number of overall MSHR misses (Count)
system.cpu.icache.overallMshrMisses::total       358683                       # number of overall MSHR misses (Count)
system.cpu.icache.demandMshrMissLatency::switch_cpus.inst  23330460981                       # number of demand (read+write) MSHR miss ticks (Tick)
system.cpu.icache.demandMshrMissLatency::total  23330460981                       # number of demand (read+write) MSHR miss ticks (Tick)
system.cpu.icache.overallMshrMissLatency::switch_cpus.inst  23330460981                       # number of overall MSHR miss ticks (Tick)
system.cpu.icache.overallMshrMissLatency::total  23330460981                       # number of overall MSHR miss ticks (Tick)
system.cpu.icache.demandMshrMissRate::switch_cpus.inst     0.002331                       # mshr miss ratio for demand accesses (Ratio)
system.cpu.icache.demandMshrMissRate::total     0.002331                       # mshr miss ratio for demand accesses (Ratio)
system.cpu.icache.overallMshrMissRate::switch_cpus.inst     0.002331                       # mshr miss ratio for overall accesses (Ratio)
system.cpu.icache.overallMshrMissRate::total     0.002331                       # mshr miss ratio for overall accesses (Ratio)
system.cpu.icache.demandAvgMshrMissLatency::switch_cpus.inst 65044.791588                       # average overall mshr miss latency ((Tick/Count))
system.cpu.icache.demandAvgMshrMissLatency::total 65044.791588                       # average overall mshr miss latency ((Tick/Count))
system.cpu.icache.overallAvgMshrMissLatency::switch_cpus.inst 65044.791588                       # average overall mshr miss latency ((Tick/Count))
system.cpu.icache.overallAvgMshrMissLatency::total 65044.791588                       # average overall mshr miss latency ((Tick/Count))
system.cpu.icache.replacements                 358172                       # number of replacements (Count)
system.cpu.icache.ReadReq.hits::cpu.inst            9                       # number of ReadReq hits (Count)
system.cpu.icache.ReadReq.hits::switch_cpus.inst    153457168                       # number of ReadReq hits (Count)
system.cpu.icache.ReadReq.hits::total       153457177                       # number of ReadReq hits (Count)
system.cpu.icache.ReadReq.misses::cpu.inst            2                       # number of ReadReq misses (Count)
system.cpu.icache.ReadReq.misses::switch_cpus.inst       419493                       # number of ReadReq misses (Count)
system.cpu.icache.ReadReq.misses::total        419495                       # number of ReadReq misses (Count)
system.cpu.icache.ReadReq.missLatency::switch_cpus.inst  26957333958                       # number of ReadReq miss ticks (Tick)
system.cpu.icache.ReadReq.missLatency::total  26957333958                       # number of ReadReq miss ticks (Tick)
system.cpu.icache.ReadReq.accesses::cpu.inst           11                       # number of ReadReq accesses(hits+misses) (Count)
system.cpu.icache.ReadReq.accesses::switch_cpus.inst    153876661                       # number of ReadReq accesses(hits+misses) (Count)
system.cpu.icache.ReadReq.accesses::total    153876672                       # number of ReadReq accesses(hits+misses) (Count)
system.cpu.icache.ReadReq.missRate::cpu.inst     0.181818                       # miss rate for ReadReq accesses (Ratio)
system.cpu.icache.ReadReq.missRate::switch_cpus.inst     0.002726                       # miss rate for ReadReq accesses (Ratio)
system.cpu.icache.ReadReq.missRate::total     0.002726                       # miss rate for ReadReq accesses (Ratio)
system.cpu.icache.ReadReq.avgMissLatency::switch_cpus.inst 64261.701525                       # average ReadReq miss latency ((Tick/Count))
system.cpu.icache.ReadReq.avgMissLatency::total 64261.395149                       # average ReadReq miss latency ((Tick/Count))
system.cpu.icache.ReadReq.mshrHits::switch_cpus.inst        60810                       # number of ReadReq MSHR hits (Count)
system.cpu.icache.ReadReq.mshrHits::total        60810                       # number of ReadReq MSHR hits (Count)
system.cpu.icache.ReadReq.mshrMisses::switch_cpus.inst       358683                       # number of ReadReq MSHR misses (Count)
system.cpu.icache.ReadReq.mshrMisses::total       358683                       # number of ReadReq MSHR misses (Count)
system.cpu.icache.ReadReq.mshrMissLatency::switch_cpus.inst  23330460981                       # number of ReadReq MSHR miss ticks (Tick)
system.cpu.icache.ReadReq.mshrMissLatency::total  23330460981                       # number of ReadReq MSHR miss ticks (Tick)
system.cpu.icache.ReadReq.mshrMissRate::switch_cpus.inst     0.002331                       # mshr miss rate for ReadReq accesses (Ratio)
system.cpu.icache.ReadReq.mshrMissRate::total     0.002331                       # mshr miss rate for ReadReq accesses (Ratio)
system.cpu.icache.ReadReq.avgMshrMissLatency::switch_cpus.inst 65044.791588                       # average ReadReq mshr miss latency ((Tick/Count))
system.cpu.icache.ReadReq.avgMshrMissLatency::total 65044.791588                       # average ReadReq mshr miss latency ((Tick/Count))
system.cpu.icache.power_state.pwrStateResidencyTicks::UNDEFINED 7043507371000                       # Cumulative time (in ticks) in various power states (Tick)
system.cpu.icache.tags.tagsInUse           511.966719                       # Average ticks per tags in use ((Tick/Count))
system.cpu.icache.tags.totalRefs            153815861                       # Total number of references to valid blocks. (Count)
system.cpu.icache.tags.sampledRefs             358684                       # Sample count of references to valid blocks. (Count)
system.cpu.icache.tags.avgRefs             428.833907                       # Average number of references to valid blocks. ((Count/Count))
system.cpu.icache.tags.warmupTick        6166815236500                       # The tick when the warmup percentage was hit. (Tick)
system.cpu.icache.tags.occupancies::cpu.inst     0.000109                       # Average occupied blocks per tick, per requestor ((Count/Tick))
system.cpu.icache.tags.occupancies::switch_cpus.inst   511.966610                       # Average occupied blocks per tick, per requestor ((Count/Tick))
system.cpu.icache.tags.avgOccs::cpu.inst     0.000000                       # Average percentage of cache occupancy ((Ratio/Tick))
system.cpu.icache.tags.avgOccs::switch_cpus.inst     0.999935                       # Average percentage of cache occupancy ((Ratio/Tick))
system.cpu.icache.tags.avgOccs::total        0.999935                       # Average percentage of cache occupancy ((Ratio/Tick))
system.cpu.icache.tags.occupanciesTaskId::1024          512                       # Occupied blocks per task id (Count)
system.cpu.icache.tags.ageTaskId_1024::0          120                       # Occupied blocks per task id, per block age (Count)
system.cpu.icache.tags.ageTaskId_1024::1          342                       # Occupied blocks per task id, per block age (Count)
system.cpu.icache.tags.ageTaskId_1024::2           50                       # Occupied blocks per task id, per block age (Count)
system.cpu.icache.tags.ratioOccsTaskId::1024            1                       # Ratio of occupied blocks and all blocks, per task id (Ratio)
system.cpu.icache.tags.tagAccesses          308112028                       # Number of tag accesses (Count)
system.cpu.icache.tags.dataAccesses         308112028                       # Number of data accesses (Count)
system.cpu.icache.tags.power_state.pwrStateResidencyTicks::UNDEFINED 7043507371000                       # Cumulative time (in ticks) in various power states (Tick)
system.cpu.interrupts.clk_domain.clock           8000                       # Clock period in ticks (Tick)
system.cpu.itb_walker_cache.demandHits::switch_cpus.mmu.itb.walker        11865                       # number of demand (read+write) hits (Count)
system.cpu.itb_walker_cache.demandHits::total        11865                       # number of demand (read+write) hits (Count)
system.cpu.itb_walker_cache.overallHits::switch_cpus.mmu.itb.walker        11865                       # number of overall hits (Count)
system.cpu.itb_walker_cache.overallHits::total        11865                       # number of overall hits (Count)
system.cpu.itb_walker_cache.demandMisses::switch_cpus.mmu.itb.walker         6460                       # number of demand (read+write) misses (Count)
system.cpu.itb_walker_cache.demandMisses::total         6460                       # number of demand (read+write) misses (Count)
system.cpu.itb_walker_cache.overallMisses::switch_cpus.mmu.itb.walker         6460                       # number of overall misses (Count)
system.cpu.itb_walker_cache.overallMisses::total         6460                       # number of overall misses (Count)
system.cpu.itb_walker_cache.demandMissLatency::switch_cpus.mmu.itb.walker    406722000                       # number of demand (read+write) miss ticks (Tick)
system.cpu.itb_walker_cache.demandMissLatency::total    406722000                       # number of demand (read+write) miss ticks (Tick)
system.cpu.itb_walker_cache.overallMissLatency::switch_cpus.mmu.itb.walker    406722000                       # number of overall miss ticks (Tick)
system.cpu.itb_walker_cache.overallMissLatency::total    406722000                       # number of overall miss ticks (Tick)
system.cpu.itb_walker_cache.demandAccesses::switch_cpus.mmu.itb.walker        18325                       # number of demand (read+write) accesses (Count)
system.cpu.itb_walker_cache.demandAccesses::total        18325                       # number of demand (read+write) accesses (Count)
system.cpu.itb_walker_cache.overallAccesses::switch_cpus.mmu.itb.walker        18325                       # number of overall (read+write) accesses (Count)
system.cpu.itb_walker_cache.overallAccesses::total        18325                       # number of overall (read+write) accesses (Count)
system.cpu.itb_walker_cache.demandMissRate::switch_cpus.mmu.itb.walker     0.352524                       # miss rate for demand accesses (Ratio)
system.cpu.itb_walker_cache.demandMissRate::total     0.352524                       # miss rate for demand accesses (Ratio)
system.cpu.itb_walker_cache.overallMissRate::switch_cpus.mmu.itb.walker     0.352524                       # miss rate for overall accesses (Ratio)
system.cpu.itb_walker_cache.overallMissRate::total     0.352524                       # miss rate for overall accesses (Ratio)
system.cpu.itb_walker_cache.demandAvgMissLatency::switch_cpus.mmu.itb.walker 62960.061920                       # average overall miss latency in ticks ((Tick/Count))
system.cpu.itb_walker_cache.demandAvgMissLatency::total 62960.061920                       # average overall miss latency in ticks ((Tick/Count))
system.cpu.itb_walker_cache.overallAvgMissLatency::switch_cpus.mmu.itb.walker 62960.061920                       # average overall miss latency ((Tick/Count))
system.cpu.itb_walker_cache.overallAvgMissLatency::total 62960.061920                       # average overall miss latency ((Tick/Count))
system.cpu.itb_walker_cache.blockedCycles::no_mshrs            0                       # number of cycles access was blocked (Cycle)
system.cpu.itb_walker_cache.blockedCycles::no_targets            0                       # number of cycles access was blocked (Cycle)
system.cpu.itb_walker_cache.blockedCauses::no_mshrs            0                       # number of times access was blocked (Count)
system.cpu.itb_walker_cache.blockedCauses::no_targets            0                       # number of times access was blocked (Count)
system.cpu.itb_walker_cache.avgBlocked::no_mshrs          nan                       # average number of cycles each access was blocked ((Cycle/Count))
system.cpu.itb_walker_cache.avgBlocked::no_targets          nan                       # average number of cycles each access was blocked ((Cycle/Count))
system.cpu.itb_walker_cache.demandMshrMisses::switch_cpus.mmu.itb.walker         6460                       # number of demand (read+write) MSHR misses (Count)
system.cpu.itb_walker_cache.demandMshrMisses::total         6460                       # number of demand (read+write) MSHR misses (Count)
system.cpu.itb_walker_cache.overallMshrMisses::switch_cpus.mmu.itb.walker         6460                       # number of overall MSHR misses (Count)
system.cpu.itb_walker_cache.overallMshrMisses::total         6460                       # number of overall MSHR misses (Count)
system.cpu.itb_walker_cache.demandMshrMissLatency::switch_cpus.mmu.itb.walker    400262000                       # number of demand (read+write) MSHR miss ticks (Tick)
system.cpu.itb_walker_cache.demandMshrMissLatency::total    400262000                       # number of demand (read+write) MSHR miss ticks (Tick)
system.cpu.itb_walker_cache.overallMshrMissLatency::switch_cpus.mmu.itb.walker    400262000                       # number of overall MSHR miss ticks (Tick)
system.cpu.itb_walker_cache.overallMshrMissLatency::total    400262000                       # number of overall MSHR miss ticks (Tick)
system.cpu.itb_walker_cache.demandMshrMissRate::switch_cpus.mmu.itb.walker     0.352524                       # mshr miss ratio for demand accesses (Ratio)
system.cpu.itb_walker_cache.demandMshrMissRate::total     0.352524                       # mshr miss ratio for demand accesses (Ratio)
system.cpu.itb_walker_cache.overallMshrMissRate::switch_cpus.mmu.itb.walker     0.352524                       # mshr miss ratio for overall accesses (Ratio)
system.cpu.itb_walker_cache.overallMshrMissRate::total     0.352524                       # mshr miss ratio for overall accesses (Ratio)
system.cpu.itb_walker_cache.demandAvgMshrMissLatency::switch_cpus.mmu.itb.walker 61960.061920                       # average overall mshr miss latency ((Tick/Count))
system.cpu.itb_walker_cache.demandAvgMshrMissLatency::total 61960.061920                       # average overall mshr miss latency ((Tick/Count))
system.cpu.itb_walker_cache.overallAvgMshrMissLatency::switch_cpus.mmu.itb.walker 61960.061920                       # average overall mshr miss latency ((Tick/Count))
system.cpu.itb_walker_cache.overallAvgMshrMissLatency::total 61960.061920                       # average overall mshr miss latency ((Tick/Count))
system.cpu.itb_walker_cache.replacements         6052                       # number of replacements (Count)
system.cpu.itb_walker_cache.ReadReq.hits::switch_cpus.mmu.itb.walker        11865                       # number of ReadReq hits (Count)
system.cpu.itb_walker_cache.ReadReq.hits::total        11865                       # number of ReadReq hits (Count)
system.cpu.itb_walker_cache.ReadReq.misses::switch_cpus.mmu.itb.walker         6460                       # number of ReadReq misses (Count)
system.cpu.itb_walker_cache.ReadReq.misses::total         6460                       # number of ReadReq misses (Count)
system.cpu.itb_walker_cache.ReadReq.missLatency::switch_cpus.mmu.itb.walker    406722000                       # number of ReadReq miss ticks (Tick)
system.cpu.itb_walker_cache.ReadReq.missLatency::total    406722000                       # number of ReadReq miss ticks (Tick)
system.cpu.itb_walker_cache.ReadReq.accesses::switch_cpus.mmu.itb.walker        18325                       # number of ReadReq accesses(hits+misses) (Count)
system.cpu.itb_walker_cache.ReadReq.accesses::total        18325                       # number of ReadReq accesses(hits+misses) (Count)
system.cpu.itb_walker_cache.ReadReq.missRate::switch_cpus.mmu.itb.walker     0.352524                       # miss rate for ReadReq accesses (Ratio)
system.cpu.itb_walker_cache.ReadReq.missRate::total     0.352524                       # miss rate for ReadReq accesses (Ratio)
system.cpu.itb_walker_cache.ReadReq.avgMissLatency::switch_cpus.mmu.itb.walker 62960.061920                       # average ReadReq miss latency ((Tick/Count))
system.cpu.itb_walker_cache.ReadReq.avgMissLatency::total 62960.061920                       # average ReadReq miss latency ((Tick/Count))
system.cpu.itb_walker_cache.ReadReq.mshrMisses::switch_cpus.mmu.itb.walker         6460                       # number of ReadReq MSHR misses (Count)
system.cpu.itb_walker_cache.ReadReq.mshrMisses::total         6460                       # number of ReadReq MSHR misses (Count)
system.cpu.itb_walker_cache.ReadReq.mshrMissLatency::switch_cpus.mmu.itb.walker    400262000                       # number of ReadReq MSHR miss ticks (Tick)
system.cpu.itb_walker_cache.ReadReq.mshrMissLatency::total    400262000                       # number of ReadReq MSHR miss ticks (Tick)
system.cpu.itb_walker_cache.ReadReq.mshrMissRate::switch_cpus.mmu.itb.walker     0.352524                       # mshr miss rate for ReadReq accesses (Ratio)
system.cpu.itb_walker_cache.ReadReq.mshrMissRate::total     0.352524                       # mshr miss rate for ReadReq accesses (Ratio)
system.cpu.itb_walker_cache.ReadReq.avgMshrMissLatency::switch_cpus.mmu.itb.walker 61960.061920                       # average ReadReq mshr miss latency ((Tick/Count))
system.cpu.itb_walker_cache.ReadReq.avgMshrMissLatency::total 61960.061920                       # average ReadReq mshr miss latency ((Tick/Count))
system.cpu.itb_walker_cache.power_state.pwrStateResidencyTicks::UNDEFINED 7043507371000                       # Cumulative time (in ticks) in various power states (Tick)
system.cpu.itb_walker_cache.tags.tagsInUse    15.871022                       # Average ticks per tags in use ((Tick/Count))
system.cpu.itb_walker_cache.tags.totalRefs        18325                       # Total number of references to valid blocks. (Count)
system.cpu.itb_walker_cache.tags.sampledRefs         6460                       # Sample count of references to valid blocks. (Count)
system.cpu.itb_walker_cache.tags.avgRefs     2.836687                       # Average number of references to valid blocks. ((Count/Count))
system.cpu.itb_walker_cache.tags.warmupTick 6166815323000                       # The tick when the warmup percentage was hit. (Tick)
system.cpu.itb_walker_cache.tags.occupancies::switch_cpus.mmu.itb.walker    15.871022                       # Average occupied blocks per tick, per requestor ((Count/Tick))
system.cpu.itb_walker_cache.tags.avgOccs::switch_cpus.mmu.itb.walker     0.991939                       # Average percentage of cache occupancy ((Ratio/Tick))
system.cpu.itb_walker_cache.tags.avgOccs::total     0.991939                       # Average percentage of cache occupancy ((Ratio/Tick))
system.cpu.itb_walker_cache.tags.occupanciesTaskId::1024           16                       # Occupied blocks per task id (Count)
system.cpu.itb_walker_cache.tags.ageTaskId_1024::1            9                       # Occupied blocks per task id, per block age (Count)
system.cpu.itb_walker_cache.tags.ageTaskId_1024::2            7                       # Occupied blocks per task id, per block age (Count)
[...]
system.switch_cpus.fetch.nisnDist::stdev     2.452417                       # Number of instructions fetched each cycle (Total) (Count)
system.switch_cpus.fetch.nisnDist::underflows            0      0.00%      0.00% # Number of instructions fetched each cycle (Total) (Count)
system.switch_cpus.fetch.nisnDist::0       1408410310     81.66%     81.66% # Number of instructions fetched each cycle (Total) (Count)
system.switch_cpus.fetch.nisnDist::1         17012437      0.99%     82.65% # Number of instructions fetched each cycle (Total) (Count)
system.switch_cpus.fetch.nisnDist::2         23519909      1.36%     84.01% # Number of instructions fetched each cycle (Total) (Count)
system.switch_cpus.fetch.nisnDist::3         14810501      0.86%     84.87% # Number of instructions fetched each cycle (Total) (Count)
system.switch_cpus.fetch.nisnDist::4         33975341      1.97%     86.84% # Number of instructions fetched each cycle (Total) (Count)
system.switch_cpus.fetch.nisnDist::5         39839477      2.31%     89.15% # Number of instructions fetched each cycle (Total) (Count)
system.switch_cpus.fetch.nisnDist::6          9115615      0.53%     89.68% # Number of instructions fetched each cycle (Total) (Count)
system.switch_cpus.fetch.nisnDist::7         77041407      4.47%     94.15% # Number of instructions fetched each cycle (Total) (Count)
system.switch_cpus.fetch.nisnDist::8        100923906      5.85%    100.00% # Number of instructions fetched each cycle (Total) (Count)
system.switch_cpus.fetch.nisnDist::overflows            0      0.00%    100.00% # Number of instructions fetched each cycle (Total) (Count)
system.switch_cpus.fetch.nisnDist::min_value            0                       # Number of instructions fetched each cycle (Total) (Count)
system.switch_cpus.fetch.nisnDist::max_value            8                       # Number of instructions fetched each cycle (Total) (Count)
system.switch_cpus.fetch.nisnDist::total   1724648903                       # Number of instructions fetched each cycle (Total) (Count)
system.switch_cpus.fetchStats0.numInsts    1081118075                       # Number of instructions fetched (thread level) (Count)
system.switch_cpus.fetchStats0.numOps               0                       # Number of ops (including micro ops) fetched (thread level) (Count)
system.switch_cpus.fetchStats0.fetchRate     0.617329                       # Number of inst fetches per cycle ((Count/Cycle))
system.switch_cpus.fetchStats0.numBranches    247361489                       # Number of branches fetched (Count)
system.switch_cpus.fetchStats0.branchRate     0.141246                       # Number of branch fetches per cycle (Ratio)
system.switch_cpus.fetchStats0.icacheStallCycles    198186122                       # ICache total stall cycles (Cycle)
system.switch_cpus.fetchStats0.numFetchSuspends            0                       # Number of times Execute suspended instruction fetching (Count)
system.switch_cpus.iew.idleCycles                   0                       # Number of cycles IEW is idle (Cycle)
system.switch_cpus.iew.squashCycles          15959641                       # Number of cycles IEW is squashing (Cycle)
system.switch_cpus.iew.blockCycles          401161840                       # Number of cycles IEW is blocking (Cycle)
system.switch_cpus.iew.unblockCycles         10562967                       # Number of cycles IEW is unblocking (Cycle)
system.switch_cpus.iew.dispatchedInsts     1365395314                       # Number of instructions dispatched to IQ (Count)
system.switch_cpus.iew.dispSquashedInsts      2705594                       # Number of squashed instructions skipped by dispatch (Count)
system.switch_cpus.iew.dispLoadInsts        144036981                       # Number of dispatched load instructions (Count)
system.switch_cpus.iew.dispStoreInsts        36710947                       # Number of dispatched store instructions (Count)
system.switch_cpus.iew.dispNonSpecInsts        650732                       # Number of dispatched non-speculative instructions (Count)
system.switch_cpus.iew.iqFullEvents           1782591                       # Number of times the IQ has become full, causing a stall (Count)
system.switch_cpus.iew.lsqFullEvents          7209757                       # Number of times the LSQ has become full, causing a stall (Count)
system.switch_cpus.iew.memOrderViolationEvents        30953                       # Number of memory order violations (Count)
system.switch_cpus.iew.predictedTakenIncorrect     13912946                       # Number of branches that were predicted taken incorrectly (Count)
system.switch_cpus.iew.predictedNotTakenIncorrect      6619830                       # Number of branches that were predicted not taken incorrectly (Count)
system.switch_cpus.iew.branchMispredicts     20532776                       # Number of branch mispredicts detected at execute (Count)
system.switch_cpus.iew.instsToCommit       1153751026                       # Cumulative count of insts sent to commit (Count)
system.switch_cpus.iew.writebackCount      1149353217                       # Cumulative count of insts written-back (Count)
system.switch_cpus.iew.producerInst         910105580                       # Number of instructions producing a value (Count)
system.switch_cpus.iew.consumerInst        1367711053                       # Number of instructions consuming a value (Count)
system.switch_cpus.iew.wbRate                0.656292                       # Insts written-back per cycle ((Count/Cycle))
system.switch_cpus.iew.wbFanout              0.665422                       # Average fanout of values written-back ((Count/Count))
system.switch_cpus.lsq0.forwLoads             3951969                       # Number of loads that had data forwarded from stores (Count)
system.switch_cpus.lsq0.squashedLoads        59884613                       # Number of loads squashed (Count)
system.switch_cpus.lsq0.ignoredResponses        51150                       # Number of memory responses ignored because the instruction is squashed (Count)
system.switch_cpus.lsq0.memOrderViolation        30953                       # Number of memory ordering violations (Count)
system.switch_cpus.lsq0.squashedStores       17106412                       # Number of stores squashed (Count)
system.switch_cpus.lsq0.rescheduledLoads         5666                       # Number of loads that were rescheduled (Count)
system.switch_cpus.lsq0.blockedByCache         151276                       # Number of times an access to memory failed due to the cache being blocked (Count)
system.switch_cpus.lsq0.loadToUse::samples     84148221                       # Distribution of cycle latency between the first time a load is issued and its completion (Unspecified)
system.switch_cpus.lsq0.loadToUse::mean     87.886169                       # Distribution of cycle latency between the first time a load is issued and its completion (Unspecified)
system.switch_cpus.lsq0.loadToUse::stdev   518.713358                       # Distribution of cycle latency between the first time a load is issued and its completion (Unspecified)
system.switch_cpus.lsq0.loadToUse::0-9       76209703     90.57%     90.57% # Distribution of cycle latency between the first time a load is issued and its completion (Unspecified)
system.switch_cpus.lsq0.loadToUse::10-19       198323      0.24%     90.80% # Distribution of cycle latency between the first time a load is issued and its completion (Unspecified)
system.switch_cpus.lsq0.loadToUse::20-29       102573      0.12%     90.92% # Distribution of cycle latency between the first time a load is issued and its completion (Unspecified)
system.switch_cpus.lsq0.loadToUse::30-39        98443      0.12%     91.04% # Distribution of cycle latency between the first time a load is issued and its completion (Unspecified)
system.switch_cpus.lsq0.loadToUse::40-49       122511      0.15%     91.19% # Distribution of cycle latency between the first time a load is issued and its completion (Unspecified)
system.switch_cpus.lsq0.loadToUse::50-59       142281      0.17%     91.36% # Distribution of cycle latency between the first time a load is issued and its completion (Unspecified)
system.switch_cpus.lsq0.loadToUse::60-69       156039      0.19%     91.54% # Distribution of cycle latency between the first time a load is issued and its completion (Unspecified)
system.switch_cpus.lsq0.loadToUse::70-79       274545      0.33%     91.87% # Distribution of cycle latency between the first time a load is issued and its completion (Unspecified)
system.switch_cpus.lsq0.loadToUse::80-89       273846      0.33%     92.19% # Distribution of cycle latency between the first time a load is issued and its completion (Unspecified)
system.switch_cpus.lsq0.loadToUse::90-99       385035      0.46%     92.65% # Distribution of cycle latency between the first time a load is issued and its completion (Unspecified)
system.switch_cpus.lsq0.loadToUse::100-109      1328514      1.58%     94.23% # Distribution of cycle latency between the first time a load is issued and its completion (Unspecified)
system.switch_cpus.lsq0.loadToUse::110-119       565097      0.67%     94.90% # Distribution of cycle latency between the first time a load is issued and its completion (Unspecified)
system.switch_cpus.lsq0.loadToUse::120-129       199409      0.24%     95.14% # Distribution of cycle latency between the first time a load is issued and its completion (Unspecified)
system.switch_cpus.lsq0.loadToUse::130-139       462428      0.55%     95.69% # Distribution of cycle latency between the first time a load is issued and its completion (Unspecified)
system.switch_cpus.lsq0.loadToUse::140-149       100054      0.12%     95.81% # Distribution of cycle latency between the first time a load is issued and its completion (Unspecified)
system.switch_cpus.lsq0.loadToUse::150-159       228592      0.27%     96.08% # Distribution of cycle latency between the first time a load is issued and its completion (Unspecified)
system.switch_cpus.lsq0.loadToUse::160-169       339687      0.40%     96.48% # Distribution of cycle latency between the first time a load is issued and its completion (Unspecified)
system.switch_cpus.lsq0.loadToUse::170-179        50199      0.06%     96.54% # Distribution of cycle latency between the first time a load is issued and its completion (Unspecified)
system.switch_cpus.lsq0.loadToUse::180-189        21466      0.03%     96.57% # Distribution of cycle latency between the first time a load is issued and its completion (Unspecified)
system.switch_cpus.lsq0.loadToUse::190-199        12244      0.01%     96.58% # Distribution of cycle latency between the first time a load is issued and its completion (Unspecified)
system.switch_cpus.lsq0.loadToUse::200-209        10902      0.01%     96.59% # Distribution of cycle latency between the first time a load is issued and its completion (Unspecified)
system.switch_cpus.lsq0.loadToUse::210-219        10150      0.01%     96.61% # Distribution of cycle latency between the first time a load is issued and its completion (Unspecified)
system.switch_cpus.lsq0.loadToUse::220-229        11515      0.01%     96.62% # Distribution of cycle latency between the first time a load is issued and its completion (Unspecified)
system.switch_cpus.lsq0.loadToUse::230-239        11563      0.01%     96.63% # Distribution of cycle latency between the first time a load is issued and its completion (Unspecified)
system.switch_cpus.lsq0.loadToUse::240-249        12259      0.01%     96.65% # Distribution of cycle latency between the first time a load is issued and its completion (Unspecified)
system.switch_cpus.lsq0.loadToUse::250-259        11866      0.01%     96.66% # Distribution of cycle latency between the first time a load is issued and its completion (Unspecified)
system.switch_cpus.lsq0.loadToUse::260-269         7287      0.01%     96.67% # Distribution of cycle latency between the first time a load is issued and its completion (Unspecified)
system.switch_cpus.lsq0.loadToUse::270-279         6370      0.01%     96.68% # Distribution of cycle latency between the first time a load is issued and its completion (Unspecified)
system.switch_cpus.lsq0.loadToUse::280-289         5674      0.01%     96.68% # Distribution of cycle latency between the first time a load is issued and its completion (Unspecified)
system.switch_cpus.lsq0.loadToUse::290-299         6402      0.01%     96.69% # Distribution of cycle latency between the first time a load is issued and its completion (Unspecified)
system.switch_cpus.lsq0.loadToUse::overflows      2783244      3.31%    100.00% # Distribution of cycle latency between the first time a load is issued and its completion (Unspecified)
system.switch_cpus.lsq0.loadToUse::min_value            2                       # Distribution of cycle latency between the first time a load is issued and its completion (Unspecified)
system.switch_cpus.lsq0.loadToUse::max_value        12008                       # Distribution of cycle latency between the first time a load is issued and its completion (Unspecified)
system.switch_cpus.lsq0.loadToUse::total     84148221                       # Distribution of cycle latency between the first time a load is issued and its completion (Unspecified)
system.switch_cpus.mmu.dtb.rdAccesses       126802038                       # TLB accesses on read requests (Count)
system.switch_cpus.mmu.dtb.wrAccesses        26708612                       # TLB accesses on write requests (Count)
system.switch_cpus.mmu.dtb.rdMisses           4884839                       # TLB misses on read requests (Count)
system.switch_cpus.mmu.dtb.wrMisses            297870                       # TLB misses on write requests (Count)
system.switch_cpus.mmu.dtb.walker.power_state.pwrStateResidencyTicks::UNDEFINED 7043507371000                       # Cumulative time (in ticks) in various power states (Tick)
system.switch_cpus.mmu.itb.rdAccesses               0                       # TLB accesses on read requests (Count)
system.switch_cpus.mmu.itb.wrAccesses       153898167                       # TLB accesses on write requests (Count)
system.switch_cpus.mmu.itb.rdMisses                 0                       # TLB misses on read requests (Count)
system.switch_cpus.mmu.itb.wrMisses              7610                       # TLB misses on write requests (Count)
system.switch_cpus.mmu.itb.walker.power_state.pwrStateResidencyTicks::UNDEFINED 7043507371000                       # Cumulative time (in ticks) in various power states (Tick)
system.switch_cpus.power_state.numTransitions           34                       # Number of power state transitions (Count)
system.switch_cpus.power_state.ticksClkGated::samples           17                       # Distribution of time spent in the clock gated state (Tick)
system.switch_cpus.power_state.ticksClkGated::mean 61792882.352941                       # Distribution of time spent in the clock gated state (Tick)
system.switch_cpus.power_state.ticksClkGated::stdev 134841838.548275                       # Distribution of time spent in the clock gated state (Tick)
system.switch_cpus.power_state.ticksClkGated::1000-5e+10           17    100.00%    100.00% # Distribution of time spent in the clock gated state (Tick)
system.switch_cpus.power_state.ticksClkGated::min_value       847000                       # Distribution of time spent in the clock gated state (Tick)
system.switch_cpus.power_state.ticksClkGated::max_value    516541500                       # Distribution of time spent in the clock gated state (Tick)
system.switch_cpus.power_state.ticksClkGated::total           17                       # Distribution of time spent in the clock gated state (Tick)
system.switch_cpus.power_state.pwrStateResidencyTicks::ON 865508792000                       # Cumulative time (in ticks) in various power states (Tick)
system.switch_cpus.power_state.pwrStateResidencyTicks::CLK_GATED   1050479000                       # Cumulative time (in ticks) in various power states (Tick)
system.switch_cpus.power_state.pwrStateResidencyTicks::OFF  10132864250                       # Cumulative time (in ticks) in various power states (Tick)
system.switch_cpus.rename.squashCycles       15959641                       # Number of cycles rename is squashing (Cycle)
system.switch_cpus.rename.idleCycles        224974982                       # Number of cycles rename is idle (Cycle)
system.switch_cpus.rename.blockCycles      1151655423                       # Number of cycles rename is blocking (Cycle)
system.switch_cpus.rename.serializeStallCycles     18102286                       # count of cycles rename stalled for serializing inst (Cycle)
system.switch_cpus.rename.runCycles         226466715                       # Number of cycles rename is running (Cycle)
system.switch_cpus.rename.unblockCycles      87489848                       # Number of cycles rename is unblocking (Cycle)
system.switch_cpus.rename.renamedInsts     1475217129                       # Number of instructions processed by rename (Count)
system.switch_cpus.rename.ROBFullEvents       7308072                       # Number of times rename has blocked due to ROB full (Count)
system.switch_cpus.rename.IQFullEvents       34280103                       # Number of times rename has blocked due to IQ full (Count)
system.switch_cpus.rename.LQFullEvents       18789076                       # Number of times rename has blocked due to LQ full (Count)
system.switch_cpus.rename.SQFullEvents       22625074                       # Number of times rename has blocked due to SQ full (Count)
system.switch_cpus.rename.fullRegistersEvents           41                       # Number of times there has been no free registers (Count)
system.switch_cpus.rename.renamedOperands   3160246601                       # Number of destination operands rename has renamed (Count)
system.switch_cpus.rename.lookups          5494273302                       # Number of register rename lookups that rename has made (Count)
system.switch_cpus.rename.intLookups       1756007118                       # Number of integer rename lookups (Count)
system.switch_cpus.rename.fpLookups           7364750                       # Number of floating rename lookups (Count)
system.switch_cpus.rename.committedMaps    1664014808                       # Number of HB maps that are committed (Count)
system.switch_cpus.rename.undoneMaps       1496231720                       # Number of HB maps that are undone due to squashing (Count)
system.switch_cpus.rename.serializing          261404                       # count of serializing insts renamed (Count)
system.switch_cpus.rename.tempSerializing       145066                       # count of temporary serializing insts renamed (Count)
system.switch_cpus.rename.skidInsts         109544027                       # count of insts added to the skid buffer (Count)
system.switch_cpus.rob.reads               2987582855                       # The number of ROB reads (Count)
system.switch_cpus.rob.writes              2810179985                       # The number of ROB writes (Count)
system.switch_cpus.thread_0.numInsts        456419570                       # Number of Instructions committed (Count)
system.switch_cpus.thread_0.numOps          785899233                       # Number of Ops committed (Count)
system.switch_cpus.thread_0.numMemRefs              0                       # Number of Memory References (Count)
system.voltage_domain.voltage                       1                       # Voltage in Volts (Volt)
system.workload.inst.arm                            0                       # number of arm instructions executed (Count)
system.workload.inst.quiesce                        0                       # number of quiesce instructions executed (Count)

---------- End Simulation Statistics   ----------
