
---------- Begin Simulation Statistics ----------
simSeconds                                   0.082380                       # Number of seconds simulated (Second)
simTicks                                  82380334000                       # Number of ticks simulated (Tick)
finalTick                                4778010135000                       # Number of ticks from beginning of simulation (restored from checkpoints and never reset) (Tick)
simFreq                                  1000000000000                       # The number of ticks per simulated second ((Tick/Second))
hostSeconds                                    422.75                       # Real time elapsed on the host (Second)
hostTickRate                                194869850                       # The number of ticks simulated per host second (ticks/s) ((Tick/Second))
hostMemory                                    1579128                       # Number of bytes of host memory used (Byte)
simInsts                                    176738948                       # Number of instructions simulated (Count)
simOps                                      295949242                       # Number of ops (including micro ops) simulated (Count)
hostInstRate                                   418074                       # Simulator instruction rate (inst/s) ((Count/Second))
hostOpRate                                     700064                       # Simulator op (including micro ops) rate (op/s) ((Count/Second))
system.apicbridge.power_state.pwrStateResidencyTicks::UNDEFINED 4778010135000                       # Cumulative time (in ticks) in various power states (Tick)
system.bridge.power_state.pwrStateResidencyTicks::UNDEFINED 4778010135000                       # Cumulative time (in ticks) in various power states (Tick)
system.clk_domain.clock                          1000                       # Clock period in ticks (Tick)
system.cpu0.numCycles                              22                       # Number of cpu cycles simulated (Cycle)
system.cpu0.cpi                              2.750000                       # CPI: cycles per instruction (core level) ((Cycle/Count))
system.cpu0.ipc                              0.363636                       # IPC: instructions per cycle (core level) ((Count/Cycle))
system.cpu0.numWorkItemsStarted                     0                       # Number of work items this cpu started (Count)
system.cpu0.numWorkItemsCompleted                   0                       # Number of work items this cpu completed (Count)
system.cpu0.commitStats0.numInsts                   8                       # Number of instructions committed (thread level) (Count)
system.cpu0.commitStats0.numOps                    19                       # Number of ops (including micro ops) committed (thread level) (Count)
system.cpu0.commitStats0.numInstsNotNOP             0                       # Number of instructions committed excluding NOPs or prefetches (Count)
system.cpu0.commitStats0.numOpsNotNOP               0                       # Number of Ops (including micro ops) Simulated (Count)
system.cpu0.commitStats0.cpi                 2.750000                       # CPI: cycles per instruction (thread level) ((Cycle/Count))
system.cpu0.commitStats0.ipc                 0.363636                       # IPC: instructions per cycle (thread level) ((Count/Cycle))
system.cpu0.commitStats0.numMemRefs                 0                       # Number of memory references committed (Count)
system.cpu0.commitStats0.numFpInsts                 0                       # Number of float instructions (Count)
system.cpu0.commitStats0.numIntInsts               19                       # Number of integer instructions (Count)
system.cpu0.commitStats0.numLoadInsts               3                       # Number of load instructions (Count)
system.cpu0.commitStats0.numStoreInsts              0                       # Number of store instructions (Count)
system.cpu0.commitStats0.numVecInsts                0                       # Number of vector instructions (Count)
system.cpu0.commitStats0.committedInstType::No_OpClass            0      0.00%      0.00% # Class of committed instruction. (Count)
system.cpu0.commitStats0.committedInstType::IntAlu           16     84.21%     84.21% # Class of committed instruction. (Count)
system.cpu0.commitStats0.committedInstType::IntMult            0      0.00%     84.21% # Class of committed instruction. (Count)
system.cpu0.commitStats0.committedInstType::ZeroMult            0      0.00%     84.21% # Class of committed instruction. (Count)
system.cpu0.commitStats0.committedInstType::IntDiv            0      0.00%     84.21% # Class of committed instruction. (Count)
system.cpu0.commitStats0.committedInstType::FloatAdd            0      0.00%     84.21% # Class of committed instruction. (Count)
system.cpu0.commitStats0.committedInstType::FloatCmp            0      0.00%     84.21% # Class of committed instruction. (Count)
system.cpu0.commitStats0.committedInstType::FloatCvt            0      0.00%     84.21% # Class of committed instruction. (Count)
system.cpu0.commitStats0.committedInstType::FloatMult            0      0.00%     84.21% # Class of committed instruction. (Count)
system.cpu0.commitStats0.committedInstType::FloatMultAcc            0      0.00%     84.21% # Class of committed instruction. (Count)
system.cpu0.commitStats0.committedInstType::FloatDiv            0      0.00%     84.21% # Class of committed instruction. (Count)
system.cpu0.commitStats0.committedInstType::FloatMisc            0      0.00%     84.21% # Class of committed instruction. (Count)
system.cpu0.commitStats0.committedInstType::FloatSqrt            0      0.00%     84.21% # Class of committed instruction. (Count)
system.cpu0.commitStats0.committedInstType::SimdAdd            0      0.00%     84.21% # Class of committed instruction. (Count)
system.cpu0.commitStats0.committedInstType::SimdAddAcc            0      0.00%     84.21% # Class of committed instruction. (Count)
system.cpu0.commitStats0.committedInstType::SimdAlu            0      0.00%     84.21% # Class of committed instruction. (Count)
system.cpu0.commitStats0.committedInstType::SimdCmp            0      0.00%     84.21% # Class of committed instruction. (Count)
system.cpu0.commitStats0.committedInstType::SimdCvt            0      0.00%     84.21% # Class of committed instruction. (Count)
system.cpu0.commitStats0.committedInstType::SimdMisc            0      0.00%     84.21% # Class of committed instruction. (Count)
system.cpu0.commitStats0.committedInstType::SimdMult            0      0.00%     84.21% # Class of committed instruction. (Count)
system.cpu0.commitStats0.committedInstType::SimdMultAcc            0      0.00%     84.21% # Class of committed instruction. (Count)
system.cpu0.commitStats0.committedInstType::SimdMatMultAcc            0      0.00%     84.21% # Class of committed instruction. (Count)
system.cpu0.commitStats0.committedInstType::SimdShift            0      0.00%     84.21% # Class of committed instruction. (Count)
system.cpu0.commitStats0.committedInstType::SimdShiftAcc            0      0.00%     84.21% # Class of committed instruction. (Count)
system.cpu0.commitStats0.committedInstType::SimdDiv            0      0.00%     84.21% # Class of committed instruction. (Count)
system.cpu0.commitStats0.committedInstType::SimdSqrt            0      0.00%     84.21% # Class of committed instruction. (Count)
system.cpu0.commitStats0.committedInstType::SimdFloatAdd            0      0.00%     84.21% # Class of committed instruction. (Count)
system.cpu0.commitStats0.committedInstType::SimdFloatAlu            0      0.00%     84.21% # Class of committed instruction. (Count)
system.cpu0.commitStats0.committedInstType::SimdFloatCmp            0      0.00%     84.21% # Class of committed instruction. (Count)
system.cpu0.commitStats0.committedInstType::SimdFloatCvt            0      0.00%     84.21% # Class of committed instruction. (Count)
system.cpu0.commitStats0.committedInstType::SimdFloatDiv            0      0.00%     84.21% # Class of committed instruction. (Count)
system.cpu0.commitStats0.committedInstType::SimdFloatMisc            0      0.00%     84.21% # Class of committed instruction. (Count)
system.cpu0.commitStats0.committedInstType::SimdFloatMult            0      0.00%     84.21% # Class of committed instruction. (Count)
system.cpu0.commitStats0.committedInstType::SimdFloatMultAcc            0      0.00%     84.21% # Class of committed instruction. (Count)
system.cpu0.commitStats0.committedInstType::SimdFloatMatMultAcc            0      0.00%     84.21% # Class of committed instruction. (Count)
system.cpu0.commitStats0.committedInstType::SimdFloatSqrt            0      0.00%     84.21% # Class of committed instruction. (Count)
system.cpu0.commitStats0.committedInstType::SimdReduceAdd            0      0.00%     84.21% # Class of committed instruction. (Count)
system.cpu0.commitStats0.committedInstType::SimdReduceAlu            0      0.00%     84.21% # Class of committed instruction. (Count)
system.cpu0.commitStats0.committedInstType::SimdReduceCmp            0      0.00%     84.21% # Class of committed instruction. (Count)
system.cpu0.commitStats0.committedInstType::SimdFloatReduceAdd            0      0.00%     84.21% # Class of committed instruction. (Count)
system.cpu0.commitStats0.committedInstType::SimdFloatReduceCmp            0      0.00%     84.21% # Class of committed instruction. (Count)
system.cpu0.commitStats0.committedInstType::SimdAes            0      0.00%     84.21% # Class of committed instruction. (Count)
system.cpu0.commitStats0.committedInstType::SimdAesMix            0      0.00%     84.21% # Class of committed instruction. (Count)
system.cpu0.commitStats0.committedInstType::SimdSha1Hash            0      0.00%     84.21% # Class of committed instruction. (Count)
system.cpu0.commitStats0.committedInstType::SimdSha1Hash2            0      0.00%     84.21% # Class of committed instruction. (Count)
system.cpu0.commitStats0.committedInstType::SimdSha256Hash            0      0.00%     84.21% # Class of committed instruction. (Count)
system.cpu0.commitStats0.committedInstType::SimdSha256Hash2            0      0.00%     84.21% # Class of committed instruction. (Count)
system.cpu0.commitStats0.committedInstType::SimdShaSigma2            0      0.00%     84.21% # Class of committed instruction. (Count)
system.cpu0.commitStats0.committedInstType::SimdShaSigma3            0      0.00%     84.21% # Class of committed instruction. (Count)
system.cpu0.commitStats0.committedInstType::SimdPredAlu            0      0.00%     84.21% # Class of committed instruction. (Count)
system.cpu0.commitStats0.committedInstType::Matrix            0      0.00%     84.21% # Class of committed instruction. (Count)
system.cpu0.commitStats0.committedInstType::MatrixMov            0      0.00%     84.21% # Class of committed instruction. (Count)
system.cpu0.commitStats0.committedInstType::MatrixOP            0      0.00%     84.21% # Class of committed instruction. (Count)
system.cpu0.commitStats0.committedInstType::MemRead            3     15.79%    100.00% # Class of committed instruction. (Count)
system.cpu0.commitStats0.committedInstType::MemWrite            0      0.00%    100.00% # Class of committed instruction. (Count)
system.cpu0.commitStats0.committedInstType::FloatMemRead            0      0.00%    100.00% # Class of committed instruction. (Count)
system.cpu0.commitStats0.committedInstType::FloatMemWrite            0      0.00%    100.00% # Class of committed instruction. (Count)
system.cpu0.commitStats0.committedInstType::IprAccess            0      0.00%    100.00% # Class of committed instruction. (Count)
system.cpu0.commitStats0.committedInstType::InstPrefetch            0      0.00%    100.00% # Class of committed instruction. (Count)
system.cpu0.commitStats0.committedInstType::VectorUnitStrideLoad            0      0.00%    100.00% # Class of committed instruction. (Count)
system.cpu0.commitStats0.committedInstType::VectorUnitStrideStore            0      0.00%    100.00% # Class of committed instruction. (Count)
system.cpu0.commitStats0.committedInstType::VectorUnitStrideMaskLoad            0      0.00%    100.00% # Class of committed instruction. (Count)
system.cpu0.commitStats0.committedInstType::VectorUnitStrideMaskStore            0      0.00%    100.00% # Class of committed instruction. (Count)
system.cpu0.commitStats0.committedInstType::VectorStridedLoad            0      0.00%    100.00% # Class of committed instruction. (Count)
system.cpu0.commitStats0.committedInstType::VectorStridedStore            0      0.00%    100.00% # Class of committed instruction. (Count)
system.cpu0.commitStats0.committedInstType::VectorIndexedLoad            0      0.00%    100.00% # Class of committed instruction. (Count)
system.cpu0.commitStats0.committedInstType::VectorIndexedStore            0      0.00%    100.00% # Class of committed instruction. (Count)
system.cpu0.commitStats0.committedInstType::VectorUnitStrideFaultOnlyFirstLoad            0      0.00%    100.00% # Class of committed instruction. (Count)
system.cpu0.commitStats0.committedInstType::VectorWholeRegisterLoad            0      0.00%    100.00% # Class of committed instruction. (Count)
system.cpu0.commitStats0.committedInstType::VectorWholeRegisterStore            0      0.00%    100.00% # Class of committed instruction. (Count)
system.cpu0.commitStats0.committedInstType::VectorIntegerArith            0      0.00%    100.00% # Class of committed instruction. (Count)
system.cpu0.commitStats0.committedInstType::VectorFloatArith            0      0.00%    100.00% # Class of committed instruction. (Count)
system.cpu0.commitStats0.committedInstType::VectorFloatConvert            0      0.00%    100.00% # Class of committed instruction. (Count)
system.cpu0.commitStats0.committedInstType::VectorIntegerReduce            0      0.00%    100.00% # Class of committed instruction. (Count)
system.cpu0.commitStats0.committedInstType::VectorFloatReduce            0      0.00%    100.00% # Class of committed instruction. (Count)
system.cpu0.commitStats0.committedInstType::VectorMisc            0      0.00%    100.00% # Class of committed instruction. (Count)
system.cpu0.commitStats0.committedInstType::VectorIntegerExtension            0      0.00%    100.00% # Class of committed instruction. (Count)
system.cpu0.commitStats0.committedInstType::VectorConfig            0      0.00%    100.00% # Class of committed instruction. (Count)
system.cpu0.commitStats0.committedInstType::total           19                       # Class of committed instruction. (Count)
system.cpu0.commitStats0.committedControl::IsControl            4                       # Class of control type instructions committed (Count)
system.cpu0.commitStats0.committedControl::IsDirectControl            3                       # Class of control type instructions committed (Count)
system.cpu0.commitStats0.committedControl::IsIndirectControl            1                       # Class of control type instructions committed (Count)
system.cpu0.commitStats0.committedControl::IsCondControl            1                       # Class of control type instructions committed (Count)
system.cpu0.commitStats0.committedControl::IsUncondControl            3                       # Class of control type instructions committed (Count)
system.cpu0.commitStats0.committedControl::IsReturn            1                       # Class of control type instructions committed (Count)
system.cpu0.dcache.demandHits::switch_cpus0.data      5958613                       # number of demand (read+write) hits (Count)
system.cpu0.dcache.demandHits::total          5958613                       # number of demand (read+write) hits (Count)
system.cpu0.dcache.overallHits::switch_cpus0.data      5958853                       # number of overall hits (Count)
system.cpu0.dcache.overallHits::total         5958853                       # number of overall hits (Count)
system.cpu0.dcache.demandMisses::cpu0.data            3                       # number of demand (read+write) misses (Count)
system.cpu0.dcache.demandMisses::switch_cpus0.data       251857                       # number of demand (read+write) misses (Count)
system.cpu0.dcache.demandMisses::total         251860                       # number of demand (read+write) misses (Count)
system.cpu0.dcache.overallMisses::cpu0.data            3                       # number of overall misses (Count)
system.cpu0.dcache.overallMisses::switch_cpus0.data       252305                       # number of overall misses (Count)
system.cpu0.dcache.overallMisses::total        252308                       # number of overall misses (Count)
system.cpu0.dcache.demandMissLatency::switch_cpus0.data  16253988995                       # number of demand (read+write) miss ticks (Tick)
system.cpu0.dcache.demandMissLatency::total  16253988995                       # number of demand (read+write) miss ticks (Tick)
system.cpu0.dcache.overallMissLatency::switch_cpus0.data  16253988995                       # number of overall miss ticks (Tick)
system.cpu0.dcache.overallMissLatency::total  16253988995                       # number of overall miss ticks (Tick)
system.cpu0.dcache.demandAccesses::cpu0.data            3                       # number of demand (read+write) accesses (Count)
system.cpu0.dcache.demandAccesses::switch_cpus0.data      6210470                       # number of demand (read+write) accesses (Count)
system.cpu0.dcache.demandAccesses::total      6210473                       # number of demand (read+write) accesses (Count)
system.cpu0.dcache.overallAccesses::cpu0.data            3                       # number of overall (read+write) accesses (Count)
system.cpu0.dcache.overallAccesses::switch_cpus0.data      6211158                       # number of overall (read+write) accesses (Count)
system.cpu0.dcache.overallAccesses::total      6211161                       # number of overall (read+write) accesses (Count)
system.cpu0.dcache.demandMissRate::cpu0.data            1                       # miss rate for demand accesses (Ratio)
system.cpu0.dcache.demandMissRate::switch_cpus0.data     0.040554                       # miss rate for demand accesses (Ratio)
system.cpu0.dcache.demandMissRate::total     0.040554                       # miss rate for demand accesses (Ratio)
system.cpu0.dcache.overallMissRate::cpu0.data            1                       # miss rate for overall accesses (Ratio)
system.cpu0.dcache.overallMissRate::switch_cpus0.data     0.040621                       # miss rate for overall accesses (Ratio)
system.cpu0.dcache.overallMissRate::total     0.040622                       # miss rate for overall accesses (Ratio)
system.cpu0.dcache.demandAvgMissLatency::switch_cpus0.data 64536.578277                       # average overall miss latency in ticks ((Tick/Count))
system.cpu0.dcache.demandAvgMissLatency::total 64535.809557                       # average overall miss latency in ticks ((Tick/Count))
system.cpu0.dcache.overallAvgMissLatency::switch_cpus0.data 64421.985276                       # average overall miss latency ((Tick/Count))
system.cpu0.dcache.overallAvgMissLatency::total 64421.219284                       # average overall miss latency ((Tick/Count))
system.cpu0.dcache.blockedCycles::no_mshrs        77159                       # number of cycles access was blocked (Cycle)
system.cpu0.dcache.blockedCycles::no_targets        24912                       # number of cycles access was blocked (Cycle)
system.cpu0.dcache.blockedCauses::no_mshrs         1362                       # number of times access was blocked (Count)
system.cpu0.dcache.blockedCauses::no_targets          315                       # number of times access was blocked (Count)
system.cpu0.dcache.avgBlocked::no_mshrs     56.651248                       # average number of cycles each access was blocked ((Cycle/Count))
system.cpu0.dcache.avgBlocked::no_targets    79.085714                       # average number of cycles each access was blocked ((Cycle/Count))
system.cpu0.dcache.writebacks::writebacks        60108                       # number of writebacks (Count)
system.cpu0.dcache.writebacks::total            60108                       # number of writebacks (Count)
system.cpu0.dcache.demandMshrHits::switch_cpus0.data       124715                       # number of demand (read+write) MSHR hits (Count)
system.cpu0.dcache.demandMshrHits::total       124715                       # number of demand (read+write) MSHR hits (Count)
system.cpu0.dcache.overallMshrHits::switch_cpus0.data       124715                       # number of overall MSHR hits (Count)
system.cpu0.dcache.overallMshrHits::total       124715                       # number of overall MSHR hits (Count)
system.cpu0.dcache.demandMshrMisses::switch_cpus0.data       127142                       # number of demand (read+write) MSHR misses (Count)
system.cpu0.dcache.demandMshrMisses::total       127142                       # number of demand (read+write) MSHR misses (Count)
system.cpu0.dcache.overallMshrMisses::switch_cpus0.data       127578                       # number of overall MSHR misses (Count)
system.cpu0.dcache.overallMshrMisses::total       127578                       # number of overall MSHR misses (Count)
system.cpu0.dcache.overallMshrUncacheable::switch_cpus0.data          111                       # number of overall MSHR uncacheable misses (Count)
system.cpu0.dcache.overallMshrUncacheable::total          111                       # number of overall MSHR uncacheable misses (Count)
system.cpu0.dcache.demandMshrMissLatency::switch_cpus0.data   7732816993                       # number of demand (read+write) MSHR miss ticks (Tick)
system.cpu0.dcache.demandMshrMissLatency::total   7732816993                       # number of demand (read+write) MSHR miss ticks (Tick)
system.cpu0.dcache.overallMshrMissLatency::switch_cpus0.data   7758609993                       # number of overall MSHR miss ticks (Tick)
system.cpu0.dcache.overallMshrMissLatency::total   7758609993                       # number of overall MSHR miss ticks (Tick)
system.cpu0.dcache.overallMshrUncacheableLatency::switch_cpus0.data       777500                       # number of overall MSHR uncacheable ticks (Tick)
system.cpu0.dcache.overallMshrUncacheableLatency::total       777500                       # number of overall MSHR uncacheable ticks (Tick)
system.cpu0.dcache.demandMshrMissRate::switch_cpus0.data     0.020472                       # mshr miss ratio for demand accesses (Ratio)
system.cpu0.dcache.demandMshrMissRate::total     0.020472                       # mshr miss ratio for demand accesses (Ratio)
system.cpu0.dcache.overallMshrMissRate::switch_cpus0.data     0.020540                       # mshr miss ratio for overall accesses (Ratio)
system.cpu0.dcache.overallMshrMissRate::total     0.020540                       # mshr miss ratio for overall accesses (Ratio)
system.cpu0.dcache.demandAvgMshrMissLatency::switch_cpus0.data 60820.318958                       # average overall mshr miss latency ((Tick/Count))
system.cpu0.dcache.demandAvgMshrMissLatency::total 60820.318958                       # average overall mshr miss latency ((Tick/Count))
system.cpu0.dcache.overallAvgMshrMissLatency::switch_cpus0.data 60814.638833                       # average overall mshr miss latency ((Tick/Count))
system.cpu0.dcache.overallAvgMshrMissLatency::total 60814.638833                       # average overall mshr miss latency ((Tick/Count))
system.cpu0.dcache.overallAvgMshrUncacheableLatency::switch_cpus0.data  7004.504505                       # average overall mshr uncacheable latency ((Tick/Count))
system.cpu0.dcache.overallAvgMshrUncacheableLatency::total  7004.504505                       # average overall mshr uncacheable latency ((Tick/Count))
system.cpu0.dcache.replacements                 96850                       # number of replacements (Count)
system.cpu0.dcache.LockedRMWReadReq.hits::switch_cpus0.data        39619                       # number of LockedRMWReadReq hits (Count)
system.cpu0.dcache.LockedRMWReadReq.hits::total        39619                       # number of LockedRMWReadReq hits (Count)
system.cpu0.dcache.LockedRMWReadReq.misses::switch_cpus0.data       103257                       # number of LockedRMWReadReq misses (Count)
system.cpu0.dcache.LockedRMWReadReq.misses::total       103257                       # number of LockedRMWReadReq misses (Count)
system.cpu0.dcache.LockedRMWReadReq.missLatency::switch_cpus0.data   1994768000                       # number of LockedRMWReadReq miss ticks (Tick)
system.cpu0.dcache.LockedRMWReadReq.missLatency::total   1994768000                       # number of LockedRMWReadReq miss ticks (Tick)
system.cpu0.dcache.LockedRMWReadReq.accesses::switch_cpus0.data       142876                       # number of LockedRMWReadReq accesses(hits+misses) (Count)
system.cpu0.dcache.LockedRMWReadReq.accesses::total       142876                       # number of LockedRMWReadReq accesses(hits+misses) (Count)
system.cpu0.dcache.LockedRMWReadReq.missRate::switch_cpus0.data     0.722704                       # miss rate for LockedRMWReadReq accesses (Ratio)
system.cpu0.dcache.LockedRMWReadReq.missRate::total     0.722704                       # miss rate for LockedRMWReadReq accesses (Ratio)
system.cpu0.dcache.LockedRMWReadReq.avgMissLatency::switch_cpus0.data 19318.477198                       # average LockedRMWReadReq miss latency ((Tick/Count))
system.cpu0.dcache.LockedRMWReadReq.avgMissLatency::total 19318.477198                       # average LockedRMWReadReq miss latency ((Tick/Count))
system.cpu0.dcache.LockedRMWReadReq.mshrHits::switch_cpus0.data            3                       # number of LockedRMWReadReq MSHR hits (Count)
system.cpu0.dcache.LockedRMWReadReq.mshrHits::total            3                       # number of LockedRMWReadReq MSHR hits (Count)
system.cpu0.dcache.LockedRMWReadReq.mshrMisses::switch_cpus0.data       103254                       # number of LockedRMWReadReq MSHR misses (Count)
system.cpu0.dcache.LockedRMWReadReq.mshrMisses::total       103254                       # number of LockedRMWReadReq MSHR misses (Count)
system.cpu0.dcache.LockedRMWReadReq.mshrMissLatency::switch_cpus0.data   4358898484                       # number of LockedRMWReadReq MSHR miss ticks (Tick)
system.cpu0.dcache.LockedRMWReadReq.mshrMissLatency::total   4358898484                       # number of LockedRMWReadReq MSHR miss ticks (Tick)
system.cpu0.dcache.LockedRMWReadReq.mshrMissRate::switch_cpus0.data     0.722683                       # mshr miss rate for LockedRMWReadReq accesses (Ratio)
system.cpu0.dcache.LockedRMWReadReq.mshrMissRate::total     0.722683                       # mshr miss rate for LockedRMWReadReq accesses (Ratio)
system.cpu0.dcache.LockedRMWReadReq.avgMshrMissLatency::switch_cpus0.data 42215.299010                       # average LockedRMWReadReq mshr miss latency ((Tick/Count))
system.cpu0.dcache.LockedRMWReadReq.avgMshrMissLatency::total 42215.299010                       # average LockedRMWReadReq mshr miss latency ((Tick/Count))
system.cpu0.dcache.LockedRMWWriteReq.hits::switch_cpus0.data       142876                       # number of LockedRMWWriteReq hits (Count)
system.cpu0.dcache.LockedRMWWriteReq.hits::total       142876                       # number of LockedRMWWriteReq hits (Count)
system.cpu0.dcache.LockedRMWWriteReq.accesses::switch_cpus0.data       142876                       # number of LockedRMWWriteReq accesses(hits+misses) (Count)
system.cpu0.dcache.LockedRMWWriteReq.accesses::total       142876                       # number of LockedRMWWriteReq accesses(hits+misses) (Count)
system.cpu0.dcache.ReadReq.hits::switch_cpus0.data      5006318                       # number of ReadReq hits (Count)
system.cpu0.dcache.ReadReq.hits::total        5006318                       # number of ReadReq hits (Count)
system.cpu0.dcache.ReadReq.misses::cpu0.data            3                       # number of ReadReq misses (Count)
system.cpu0.dcache.ReadReq.misses::switch_cpus0.data       179651                       # number of ReadReq misses (Count)
system.cpu0.dcache.ReadReq.misses::total       179654                       # number of ReadReq misses (Count)
system.cpu0.dcache.ReadReq.missLatency::switch_cpus0.data  12693876500                       # number of ReadReq miss ticks (Tick)
system.cpu0.dcache.ReadReq.missLatency::total  12693876500                       # number of ReadReq miss ticks (Tick)
system.cpu0.dcache.ReadReq.accesses::cpu0.data            3                       # number of ReadReq accesses(hits+misses) (Count)
system.cpu0.dcache.ReadReq.accesses::switch_cpus0.data      5185969                       # number of ReadReq accesses(hits+misses) (Count)
system.cpu0.dcache.ReadReq.accesses::total      5185972                       # number of ReadReq accesses(hits+misses) (Count)
system.cpu0.dcache.ReadReq.missRate::cpu0.data            1                       # miss rate for ReadReq accesses (Ratio)
system.cpu0.dcache.ReadReq.missRate::switch_cpus0.data     0.034642                       # miss rate for ReadReq accesses (Ratio)
system.cpu0.dcache.ReadReq.missRate::total     0.034642                       # miss rate for ReadReq accesses (Ratio)
system.cpu0.dcache.ReadReq.avgMissLatency::switch_cpus0.data 70658.535160                       # average ReadReq miss latency ((Tick/Count))
system.cpu0.dcache.ReadReq.avgMissLatency::total 70657.355250                       # average ReadReq miss latency ((Tick/Count))
system.cpu0.dcache.ReadReq.mshrHits::switch_cpus0.data       124532                       # number of ReadReq MSHR hits (Count)
system.cpu0.dcache.ReadReq.mshrHits::total       124532                       # number of ReadReq MSHR hits (Count)
system.cpu0.dcache.ReadReq.mshrMisses::switch_cpus0.data        55119                       # number of ReadReq MSHR misses (Count)
system.cpu0.dcache.ReadReq.mshrMisses::total        55119                       # number of ReadReq MSHR misses (Count)
system.cpu0.dcache.ReadReq.mshrUncacheable::switch_cpus0.data            7                       # number of ReadReq MSHR uncacheable (Count)
system.cpu0.dcache.ReadReq.mshrUncacheable::total            7                       # number of ReadReq MSHR uncacheable (Count)
system.cpu0.dcache.ReadReq.mshrMissLatency::switch_cpus0.data   4254751001                       # number of ReadReq MSHR miss ticks (Tick)
system.cpu0.dcache.ReadReq.mshrMissLatency::total   4254751001                       # number of ReadReq MSHR miss ticks (Tick)
system.cpu0.dcache.ReadReq.mshrUncacheableLatency::switch_cpus0.data       777500                       # number of ReadReq MSHR uncacheable ticks (Tick)
system.cpu0.dcache.ReadReq.mshrUncacheableLatency::total       777500                       # number of ReadReq MSHR uncacheable ticks (Tick)
system.cpu0.dcache.ReadReq.mshrMissRate::switch_cpus0.data     0.010628                       # mshr miss rate for ReadReq accesses (Ratio)
system.cpu0.dcache.ReadReq.mshrMissRate::total     0.010628                       # mshr miss rate for ReadReq accesses (Ratio)
system.cpu0.dcache.ReadReq.avgMshrMissLatency::switch_cpus0.data 77192.093489                       # average ReadReq mshr miss latency ((Tick/Count))
system.cpu0.dcache.ReadReq.avgMshrMissLatency::total 77192.093489                       # average ReadReq mshr miss latency ((Tick/Count))
system.cpu0.dcache.ReadReq.avgMshrUncacheableLatency::switch_cpus0.data 111071.428571                       # average ReadReq mshr uncacheable latency ((Tick/Count))
system.cpu0.dcache.ReadReq.avgMshrUncacheableLatency::total 111071.428571                       # average ReadReq mshr uncacheable latency ((Tick/Count))
system.cpu0.dcache.SoftPFReq.hits::switch_cpus0.data          240                       # number of SoftPFReq hits (Count)
system.cpu0.dcache.SoftPFReq.hits::total          240                       # number of SoftPFReq hits (Count)
system.cpu0.dcache.SoftPFReq.misses::switch_cpus0.data          448                       # number of SoftPFReq misses (Count)
system.cpu0.dcache.SoftPFReq.misses::total          448                       # number of SoftPFReq misses (Count)
system.cpu0.dcache.SoftPFReq.accesses::switch_cpus0.data          688                       # number of SoftPFReq accesses(hits+misses) (Count)
system.cpu0.dcache.SoftPFReq.accesses::total          688                       # number of SoftPFReq accesses(hits+misses) (Count)
system.cpu0.dcache.SoftPFReq.missRate::switch_cpus0.data     0.651163                       # miss rate for SoftPFReq accesses (Ratio)
system.cpu0.dcache.SoftPFReq.missRate::total     0.651163                       # miss rate for SoftPFReq accesses (Ratio)
system.cpu0.dcache.SoftPFReq.mshrMisses::switch_cpus0.data          436                       # number of SoftPFReq MSHR misses (Count)
system.cpu0.dcache.SoftPFReq.mshrMisses::total          436                       # number of SoftPFReq MSHR misses (Count)
system.cpu0.dcache.SoftPFReq.mshrMissLatency::switch_cpus0.data     25793000                       # number of SoftPFReq MSHR miss ticks (Tick)
system.cpu0.dcache.SoftPFReq.mshrMissLatency::total     25793000                       # number of SoftPFReq MSHR miss ticks (Tick)
system.cpu0.dcache.SoftPFReq.mshrMissRate::switch_cpus0.data     0.633721                       # mshr miss rate for SoftPFReq accesses (Ratio)
system.cpu0.dcache.SoftPFReq.mshrMissRate::total     0.633721                       # mshr miss rate for SoftPFReq accesses (Ratio)
system.cpu0.dcache.SoftPFReq.avgMshrMissLatency::switch_cpus0.data 59158.256881                       # average SoftPFReq mshr miss latency ((Tick/Count))
system.cpu0.dcache.SoftPFReq.avgMshrMissLatency::total 59158.256881                       # average SoftPFReq mshr miss latency ((Tick/Count))
system.cpu0.dcache.WriteReq.hits::switch_cpus0.data       952295                       # number of WriteReq hits (Count)
system.cpu0.dcache.WriteReq.hits::total        952295                       # number of WriteReq hits (Count)
system.cpu0.dcache.WriteReq.misses::switch_cpus0.data        72206                       # number of WriteReq misses (Count)
system.cpu0.dcache.WriteReq.misses::total        72206                       # number of WriteReq misses (Count)
system.cpu0.dcache.WriteReq.missLatency::switch_cpus0.data   3560112495                       # number of WriteReq miss ticks (Tick)
system.cpu0.dcache.WriteReq.missLatency::total   3560112495                       # number of WriteReq miss ticks (Tick)
system.cpu0.dcache.WriteReq.accesses::switch_cpus0.data      1024501                       # number of WriteReq accesses(hits+misses) (Count)
system.cpu0.dcache.WriteReq.accesses::total      1024501                       # number of WriteReq accesses(hits+misses) (Count)
system.cpu0.dcache.WriteReq.missRate::switch_cpus0.data     0.070479                       # miss rate for WriteReq accesses (Ratio)
system.cpu0.dcache.WriteReq.missRate::total     0.070479                       # miss rate for WriteReq accesses (Ratio)
system.cpu0.dcache.WriteReq.avgMissLatency::switch_cpus0.data 49304.939963                       # average WriteReq miss latency ((Tick/Count))
system.cpu0.dcache.WriteReq.avgMissLatency::total 49304.939963                       # average WriteReq miss latency ((Tick/Count))
system.cpu0.dcache.WriteReq.mshrHits::switch_cpus0.data          183                       # number of WriteReq MSHR hits (Count)
system.cpu0.dcache.WriteReq.mshrHits::total          183                       # number of WriteReq MSHR hits (Count)
system.cpu0.dcache.WriteReq.mshrMisses::switch_cpus0.data        72023                       # number of WriteReq MSHR misses (Count)
system.cpu0.dcache.WriteReq.mshrMisses::total        72023                       # number of WriteReq MSHR misses (Count)
system.cpu0.dcache.WriteReq.mshrUncacheable::switch_cpus0.data          104                       # number of WriteReq MSHR uncacheable (Count)
system.cpu0.dcache.WriteReq.mshrUncacheable::total          104                       # number of WriteReq MSHR uncacheable (Count)
system.cpu0.dcache.WriteReq.mshrMissLatency::switch_cpus0.data   3478065992                       # number of WriteReq MSHR miss ticks (Tick)
system.cpu0.dcache.WriteReq.mshrMissLatency::total   3478065992                       # number of WriteReq MSHR miss ticks (Tick)
system.cpu0.dcache.WriteReq.mshrMissRate::switch_cpus0.data     0.070301                       # mshr miss rate for WriteReq accesses (Ratio)
system.cpu0.dcache.WriteReq.mshrMissRate::total     0.070301                       # mshr miss rate for WriteReq accesses (Ratio)
system.cpu0.dcache.WriteReq.avgMshrMissLatency::switch_cpus0.data 48291.045805                       # average WriteReq mshr miss latency ((Tick/Count))
system.cpu0.dcache.WriteReq.avgMshrMissLatency::total 48291.045805                       # average WriteReq mshr miss latency ((Tick/Count))
system.cpu0.dcache.power_state.pwrStateResidencyTicks::UNDEFINED 4778010135000                       # Cumulative time (in ticks) in various power states (Tick)
system.cpu0.dcache.tags.tagsInUse          548.166924                       # Average ticks per tags in use ((Tick/Count))
system.cpu0.dcache.tags.totalRefs             6372605                       # Total number of references to valid blocks. (Count)
system.cpu0.dcache.tags.sampledRefs            226984                       # Sample count of references to valid blocks. (Count)
system.cpu0.dcache.tags.avgRefs             28.075129                       # Average number of references to valid blocks. ((Count/Count))
system.cpu0.dcache.tags.warmupTick       4695629803500                       # The tick when the warmup percentage was hit. (Tick)
system.cpu0.dcache.tags.occupancies::cpu0.data     2.034372                       # Average occupied blocks per tick, per requestor ((Count/Tick))
system.cpu0.dcache.tags.occupancies::switch_cpus0.data   546.132552                       # Average occupied blocks per tick, per requestor ((Count/Tick))
system.cpu0.dcache.tags.avgOccs::cpu0.data     0.001987                       # Average percentage of cache occupancy ((Ratio/Tick))
system.cpu0.dcache.tags.avgOccs::switch_cpus0.data     0.533333                       # Average percentage of cache occupancy ((Ratio/Tick))
system.cpu0.dcache.tags.avgOccs::total       0.535319                       # Average percentage of cache occupancy ((Ratio/Tick))
system.cpu0.dcache.tags.occupanciesTaskId::1024          823                       # Occupied blocks per task id (Count)
system.cpu0.dcache.tags.ageTaskId_1024::2          157                       # Occupied blocks per task id, per block age (Count)
system.cpu0.dcache.tags.ageTaskId_1024::3          666                       # Occupied blocks per task id, per block age (Count)
system.cpu0.dcache.tags.ratioOccsTaskId::1024     0.803711                       # Ratio of occupied blocks and all blocks, per task id (Ratio)
system.cpu0.dcache.tags.tagAccesses          13220810                       # Number of tag accesses (Count)
system.cpu0.dcache.tags.dataAccesses         13220810                       # Number of data accesses (Count)
system.cpu0.dcache.tags.power_state.pwrStateResidencyTicks::UNDEFINED 4778010135000                       # Cumulative time (in ticks) in various power states (Tick)
system.cpu0.dtb_walker_cache.demandHits::switch_cpus0.mmu.dtb.walker       190569                       # number of demand (read+write) hits (Count)
system.cpu0.dtb_walker_cache.demandHits::total       190569                       # number of demand (read+write) hits (Count)
system.cpu0.dtb_walker_cache.overallHits::switch_cpus0.mmu.dtb.walker       190569                       # number of overall hits (Count)
system.cpu0.dtb_walker_cache.overallHits::total       190569                       # number of overall hits (Count)
system.cpu0.dtb_walker_cache.demandMisses::switch_cpus0.mmu.dtb.walker        68263                       # number of demand (read+write) misses (Count)
system.cpu0.dtb_walker_cache.demandMisses::total        68263                       # number of demand (read+write) misses (Count)
system.cpu0.dtb_walker_cache.overallMisses::switch_cpus0.mmu.dtb.walker        68263                       # number of overall misses (Count)
system.cpu0.dtb_walker_cache.overallMisses::total        68263                       # number of overall misses (Count)
system.cpu0.dtb_walker_cache.demandMissLatency::switch_cpus0.mmu.dtb.walker   5398513000                       # number of demand (read+write) miss ticks (Tick)
system.cpu0.dtb_walker_cache.demandMissLatency::total   5398513000                       # number of demand (read+write) miss ticks (Tick)
system.cpu0.dtb_walker_cache.overallMissLatency::switch_cpus0.mmu.dtb.walker   5398513000                       # number of overall miss ticks (Tick)
system.cpu0.dtb_walker_cache.overallMissLatency::total   5398513000                       # number of overall miss ticks (Tick)
system.cpu0.dtb_walker_cache.demandAccesses::switch_cpus0.mmu.dtb.walker       258832                       # number of demand (read+write) accesses (Count)
system.cpu0.dtb_walker_cache.demandAccesses::total       258832                       # number of demand (read+write) accesses (Count)
system.cpu0.dtb_walker_cache.overallAccesses::switch_cpus0.mmu.dtb.walker       258832                       # number of overall (read+write) accesses (Count)
system.cpu0.dtb_walker_cache.overallAccesses::total       258832                       # number of overall (read+write) accesses (Count)
system.cpu0.dtb_walker_cache.demandMissRate::switch_cpus0.mmu.dtb.walker     0.263735                       # miss rate for demand accesses (Ratio)
system.cpu0.dtb_walker_cache.demandMissRate::total     0.263735                       # miss rate for demand accesses (Ratio)
system.cpu0.dtb_walker_cache.overallMissRate::switch_cpus0.mmu.dtb.walker     0.263735                       # miss rate for overall accesses (Ratio)
system.cpu0.dtb_walker_cache.overallMissRate::total     0.263735                       # miss rate for overall accesses (Ratio)
system.cpu0.dtb_walker_cache.demandAvgMissLatency::switch_cpus0.mmu.dtb.walker 79084.027951                       # average overall miss latency in ticks ((Tick/Count))
system.cpu0.dtb_walker_cache.demandAvgMissLatency::total 79084.027951                       # average overall miss latency in ticks ((Tick/Count))
system.cpu0.dtb_walker_cache.overallAvgMissLatency::switch_cpus0.mmu.dtb.walker 79084.027951                       # average overall miss latency ((Tick/Count))
system.cpu0.dtb_walker_cache.overallAvgMissLatency::total 79084.027951                       # average overall miss latency ((Tick/Count))
system.cpu0.dtb_walker_cache.blockedCycles::no_mshrs            0                       # number of cycles access was blocked (Cycle)
system.cpu0.dtb_walker_cache.blockedCycles::no_targets            0                       # number of cycles access was blocked (Cycle)
system.cpu0.dtb_walker_cache.blockedCauses::no_mshrs            0                       # number of times access was blocked (Count)
system.cpu0.dtb_walker_cache.blockedCauses::no_targets            0                       # number of times access was blocked (Count)
system.cpu0.dtb_walker_cache.avgBlocked::no_mshrs          nan                       # average number of cycles each access was blocked ((Cycle/Count))
system.cpu0.dtb_walker_cache.avgBlocked::no_targets          nan                       # average number of cycles each access was blocked ((Cycle/Count))
system.cpu0.dtb_walker_cache.demandMshrMisses::switch_cpus0.mmu.dtb.walker        68263                       # number of demand (read+write) MSHR misses (Count)
system.cpu0.dtb_walker_cache.demandMshrMisses::total        68263                       # number of demand (read+write) MSHR misses (Count)
system.cpu0.dtb_walker_cache.overallMshrMisses::switch_cpus0.mmu.dtb.walker        68263                       # number of overall MSHR misses (Count)
system.cpu0.dtb_walker_cache.overallMshrMisses::total        68263                       # number of overall MSHR misses (Count)
system.cpu0.dtb_walker_cache.demandMshrMissLatency::switch_cpus0.mmu.dtb.walker   5330250000                       # number of demand (read+write) MSHR miss ticks (Tick)
system.cpu0.dtb_walker_cache.demandMshrMissLatency::total   5330250000                       # number of demand (read+write) MSHR miss ticks (Tick)
system.cpu0.dtb_walker_cache.overallMshrMissLatency::switch_cpus0.mmu.dtb.walker   5330250000                       # number of overall MSHR miss ticks (Tick)
system.cpu0.dtb_walker_cache.overallMshrMissLatency::total   5330250000                       # number of overall MSHR miss ticks (Tick)
system.cpu0.dtb_walker_cache.demandMshrMissRate::switch_cpus0.mmu.dtb.walker     0.263735                       # mshr miss ratio for demand accesses (Ratio)
system.cpu0.dtb_walker_cache.demandMshrMissRate::total     0.263735                       # mshr miss ratio for demand accesses (Ratio)
system.cpu0.dtb_walker_cache.overallMshrMissRate::switch_cpus0.mmu.dtb.walker     0.263735                       # mshr miss ratio for overall accesses (Ratio)
system.cpu0.dtb_walker_cache.overallMshrMissRate::total     0.263735                       # mshr miss ratio for overall accesses (Ratio)
system.cpu0.dtb_walker_cache.demandAvgMshrMissLatency::switch_cpus0.mmu.dtb.walker 78084.027951                       # average overall mshr miss latency ((Tick/Count))
system.cpu0.dtb_walker_cache.demandAvgMshrMissLatency::total 78084.027951                       # average overall mshr miss latency ((Tick/Count))
system.cpu0.dtb_walker_cache.overallAvgMshrMissLatency::switch_cpus0.mmu.dtb.walker 78084.027951                       # average overall mshr miss latency ((Tick/Count))
system.cpu0.dtb_walker_cache.overallAvgMshrMissLatency::total 78084.027951                       # average overall mshr miss latency ((Tick/Count))
system.cpu0.dtb_walker_cache.replacements        68053                       # number of replacements (Count)
system.cpu0.dtb_walker_cache.ReadReq.hits::switch_cpus0.mmu.dtb.walker       190569                       # number of ReadReq hits (Count)
system.cpu0.dtb_walker_cache.ReadReq.hits::total       190569                       # number of ReadReq hits (Count)
system.cpu0.dtb_walker_cache.ReadReq.misses::switch_cpus0.mmu.dtb.walker        68263                       # number of ReadReq misses (Count)
system.cpu0.dtb_walker_cache.ReadReq.misses::total        68263                       # number of ReadReq misses (Count)
system.cpu0.dtb_walker_cache.ReadReq.missLatency::switch_cpus0.mmu.dtb.walker   5398513000                       # number of ReadReq miss ticks (Tick)
system.cpu0.dtb_walker_cache.ReadReq.missLatency::total   5398513000                       # number of ReadReq miss ticks (Tick)
system.cpu0.dtb_walker_cache.ReadReq.accesses::switch_cpus0.mmu.dtb.walker       258832                       # number of ReadReq accesses(hits+misses) (Count)
system.cpu0.dtb_walker_cache.ReadReq.accesses::total       258832                       # number of ReadReq accesses(hits+misses) (Count)
system.cpu0.dtb_walker_cache.ReadReq.missRate::switch_cpus0.mmu.dtb.walker     0.263735                       # miss rate for ReadReq accesses (Ratio)
system.cpu0.dtb_walker_cache.ReadReq.missRate::total     0.263735                       # miss rate for ReadReq accesses (Ratio)
system.cpu0.dtb_walker_cache.ReadReq.avgMissLatency::switch_cpus0.mmu.dtb.walker 79084.027951                       # average ReadReq miss latency ((Tick/Count))
system.cpu0.dtb_walker_cache.ReadReq.avgMissLatency::total 79084.027951                       # average ReadReq miss latency ((Tick/Count))
system.cpu0.dtb_walker_cache.ReadReq.mshrMisses::switch_cpus0.mmu.dtb.walker        68263                       # number of ReadReq MSHR misses (Count)
system.cpu0.dtb_walker_cache.ReadReq.mshrMisses::total        68263                       # number of ReadReq MSHR misses (Count)
system.cpu0.dtb_walker_cache.ReadReq.mshrMissLatency::switch_cpus0.mmu.dtb.walker   5330250000                       # number of ReadReq MSHR miss ticks (Tick)
system.cpu0.dtb_walker_cache.ReadReq.mshrMissLatency::total   5330250000                       # number of ReadReq MSHR miss ticks (Tick)
system.cpu0.dtb_walker_cache.ReadReq.mshrMissRate::switch_cpus0.mmu.dtb.walker     0.263735                       # mshr miss rate for ReadReq accesses (Ratio)
system.cpu0.dtb_walker_cache.ReadReq.mshrMissRate::total     0.263735                       # mshr miss rate for ReadReq accesses (Ratio)
system.cpu0.dtb_walker_cache.ReadReq.avgMshrMissLatency::switch_cpus0.mmu.dtb.walker 78084.027951                       # average ReadReq mshr miss latency ((Tick/Count))
system.cpu0.dtb_walker_cache.ReadReq.avgMshrMissLatency::total 78084.027951                       # average ReadReq mshr miss latency ((Tick/Count))
system.cpu0.dtb_walker_cache.power_state.pwrStateResidencyTicks::UNDEFINED 4778010135000                       # Cumulative time (in ticks) in various power states (Tick)
system.cpu0.dtb_walker_cache.tags.tagsInUse    15.412706                       # Average ticks per tags in use ((Tick/Count))
system.cpu0.dtb_walker_cache.tags.totalRefs       258832                       # Total number of references to valid blocks. (Count)
system.cpu0.dtb_walker_cache.tags.sampledRefs        68263                       # Sample count of references to valid blocks. (Count)
system.cpu0.dtb_walker_cache.tags.avgRefs     3.791688                       # Average number of references to valid blocks. ((Count/Count))
system.cpu0.dtb_walker_cache.tags.warmupTick 4695630145000                       # The tick when the warmup percentage was hit. (Tick)
system.cpu0.dtb_walker_cache.tags.occupancies::switch_cpus0.mmu.dtb.walker    15.412706                       # Average occupied blocks per tick, per requestor ((Count/Tick))
system.cpu0.dtb_walker_cache.tags.avgOccs::switch_cpus0.mmu.dtb.walker     0.963294                       # Average percentage of cache occupancy ((Ratio/Tick))
system.cpu0.dtb_walker_cache.tags.avgOccs::total     0.963294                       # Average percentage of cache occupancy ((Ratio/Tick))
system.cpu0.dtb_walker_cache.tags.occupanciesTaskId::1024           16                       # Occupied blocks per task id (Count)
system.cpu0.dtb_walker_cache.tags.ageTaskId_1024::2           13                       # Occupied blocks per task id, per block age (Count)
system.cpu0.dtb_walker_cache.tags.ageTaskId_1024::3            3                       # Occupied blocks per task id, per block age (Count)
system.cpu0.dtb_walker_cache.tags.ratioOccsTaskId::1024            1                       # Ratio of occupied blocks and all blocks, per task id (Ratio)
system.cpu0.dtb_walker_cache.tags.tagAccesses       585927                       # Number of tag accesses (Count)
system.cpu0.dtb_walker_cache.tags.dataAccesses       585927                       # Number of data accesses (Count)
system.cpu0.dtb_walker_cache.tags.power_state.pwrStateResidencyTicks::UNDEFINED 4778010135000                       # Cumulative time (in ticks) in various power states (Tick)
system.cpu0.exec_context.thread_0.numMatAluAccesses            0                       # Number of matrix alu accesses (Count)
system.cpu0.exec_context.thread_0.numCallsReturns            1                       # Number of times a function call or return occured (Count)
system.cpu0.exec_context.thread_0.numMatInsts            0                       # Number of matrix instructions (Count)
system.cpu0.exec_context.thread_0.numIdleCycles            0                       # Number of idle cycles (Cycle)
system.cpu0.exec_context.thread_0.numBusyCycles           22                       # Number of busy cycles (Cycle)
system.cpu0.exec_context.thread_0.notIdleFraction            1                       # Percentage of non-idle cycles (Ratio)
system.cpu0.exec_context.thread_0.idleFraction            0                       # Percentage of idle cycles (Ratio)
system.cpu0.executeStats0.numInsts                  0                       # Number of executed instructions (Count)
system.cpu0.executeStats0.numNop                    0                       # Number of nop insts executed (Count)
system.cpu0.executeStats0.numBranches               0                       # Number of branches executed (Count)
system.cpu0.executeStats0.numLoadInsts              0                       # Number of load instructions executed (Count)
system.cpu0.executeStats0.numStoreInsts             3                       # Number of stores executed (Count)
system.cpu0.executeStats0.instRate                  0                       # Inst execution rate ((Count/Cycle))
system.cpu0.executeStats0.numFpRegWrites            0                       # Number of times the floating registers were written (Count)
system.cpu0.executeStats0.numIntAluAccesses           19                       # Number of integer alu accesses (Count)
system.cpu0.executeStats0.numIntRegReads           15                       # Number of times the integer registers were read (Count)
system.cpu0.executeStats0.numIntRegWrites           14                       # Number of times the integer registers were written (Count)
system.cpu0.executeStats0.numMemRefs                3                       # Number of memory refs (Count)
system.cpu0.executeStats0.numMiscRegReads           12                       # Number of times the Misc registers were read (Count)
system.cpu0.executeStats0.numVecAluAccesses            0                       # Number of vector alu accesses (Count)
system.cpu0.executeStats0.numDiscardedOps            0                       # Number of ops (including micro ops) which were discarded before commit (Count)
system.cpu0.fetchStats0.numInsts                    8                       # Number of instructions fetched (thread level) (Count)
system.cpu0.fetchStats0.numOps                     19                       # Number of ops (including micro ops) fetched (thread level) (Count)
system.cpu0.fetchStats0.fetchRate            0.363636                       # Number of inst fetches per cycle ((Count/Cycle))
system.cpu0.fetchStats0.numBranches                 4                       # Number of branches fetched (Count)
system.cpu0.fetchStats0.branchRate           0.181818                       # Number of branch fetches per cycle (Ratio)
system.cpu0.fetchStats0.numFetchSuspends            0                       # Number of times Execute suspended instruction fetching (Count)
system.cpu0.icache.demandHits::cpu0.inst            6                       # number of demand (read+write) hits (Count)
system.cpu0.icache.demandHits::switch_cpus0.inst      3153894                       # number of demand (read+write) hits (Count)
system.cpu0.icache.demandHits::total          3153900                       # number of demand (read+write) hits (Count)
system.cpu0.icache.overallHits::cpu0.inst            6                       # number of overall hits (Count)
system.cpu0.icache.overallHits::switch_cpus0.inst      3153894                       # number of overall hits (Count)
system.cpu0.icache.overallHits::total         3153900                       # number of overall hits (Count)
system.cpu0.icache.demandMisses::cpu0.inst            5                       # number of demand (read+write) misses (Count)
system.cpu0.icache.demandMisses::switch_cpus0.inst        34122                       # number of demand (read+write) misses (Count)
system.cpu0.icache.demandMisses::total          34127                       # number of demand (read+write) misses (Count)
system.cpu0.icache.overallMisses::cpu0.inst            5                       # number of overall misses (Count)
system.cpu0.icache.overallMisses::switch_cpus0.inst        34122                       # number of overall misses (Count)
system.cpu0.icache.overallMisses::total         34127                       # number of overall misses (Count)
system.cpu0.icache.demandMissLatency::switch_cpus0.inst   2505319494                       # number of demand (read+write) miss ticks (Tick)
system.cpu0.icache.demandMissLatency::total   2505319494                       # number of demand (read+write) miss ticks (Tick)
system.cpu0.icache.overallMissLatency::switch_cpus0.inst   2505319494                       # number of overall miss ticks (Tick)
system.cpu0.icache.overallMissLatency::total   2505319494                       # number of overall miss ticks (Tick)
system.cpu0.icache.demandAccesses::cpu0.inst           11                       # number of demand (read+write) accesses (Count)
system.cpu0.icache.demandAccesses::switch_cpus0.inst      3188016                       # number of demand (read+write) accesses (Count)
system.cpu0.icache.demandAccesses::total      3188027                       # number of demand (read+write) accesses (Count)
system.cpu0.icache.overallAccesses::cpu0.inst           11                       # number of overall (read+write) accesses (Count)
system.cpu0.icache.overallAccesses::switch_cpus0.inst      3188016                       # number of overall (read+write) accesses (Count)
system.cpu0.icache.overallAccesses::total      3188027                       # number of overall (read+write) accesses (Count)
system.cpu0.icache.demandMissRate::cpu0.inst     0.454545                       # miss rate for demand accesses (Ratio)
system.cpu0.icache.demandMissRate::switch_cpus0.inst     0.010703                       # miss rate for demand accesses (Ratio)
system.cpu0.icache.demandMissRate::total     0.010705                       # miss rate for demand accesses (Ratio)
system.cpu0.icache.overallMissRate::cpu0.inst     0.454545                       # miss rate for overall accesses (Ratio)
system.cpu0.icache.overallMissRate::switch_cpus0.inst     0.010703                       # miss rate for overall accesses (Ratio)
system.cpu0.icache.overallMissRate::total     0.010705                       # miss rate for overall accesses (Ratio)
system.cpu0.icache.demandAvgMissLatency::switch_cpus0.inst 73422.410586                       # average overall miss latency in ticks ((Tick/Count))
system.cpu0.icache.demandAvgMissLatency::total 73411.653354                       # average overall miss latency in ticks ((Tick/Count))
system.cpu0.icache.overallAvgMissLatency::switch_cpus0.inst 73422.410586                       # average overall miss latency ((Tick/Count))
system.cpu0.icache.overallAvgMissLatency::total 73411.653354                       # average overall miss latency ((Tick/Count))
system.cpu0.icache.blockedCycles::no_mshrs         4787                       # number of cycles access was blocked (Cycle)
system.cpu0.icache.blockedCycles::no_targets            0                       # number of cycles access was blocked (Cycle)
system.cpu0.icache.blockedCauses::no_mshrs           75                       # number of times access was blocked (Count)
system.cpu0.icache.blockedCauses::no_targets            0                       # number of times access was blocked (Count)
system.cpu0.icache.avgBlocked::no_mshrs     63.826667                       # average number of cycles each access was blocked ((Cycle/Count))
system.cpu0.icache.avgBlocked::no_targets          nan                       # average number of cycles each access was blocked ((Cycle/Count))
system.cpu0.icache.writebacks::writebacks        28121                       # number of writebacks (Count)
system.cpu0.icache.writebacks::total            28121                       # number of writebacks (Count)
system.cpu0.icache.demandMshrHits::switch_cpus0.inst         5494                       # number of demand (read+write) MSHR hits (Count)
system.cpu0.icache.demandMshrHits::total         5494                       # number of demand (read+write) MSHR hits (Count)
system.cpu0.icache.overallMshrHits::switch_cpus0.inst         5494                       # number of overall MSHR hits (Count)
system.cpu0.icache.overallMshrHits::total         5494                       # number of overall MSHR hits (Count)
system.cpu0.icache.demandMshrMisses::switch_cpus0.inst        28628                       # number of demand (read+write) MSHR misses (Count)
system.cpu0.icache.demandMshrMisses::total        28628                       # number of demand (read+write) MSHR misses (Count)
system.cpu0.icache.overallMshrMisses::switch_cpus0.inst        28628                       # number of overall MSHR misses (Count)
system.cpu0.icache.overallMshrMisses::total        28628                       # number of overall MSHR misses (Count)
system.cpu0.icache.demandMshrMissLatency::switch_cpus0.inst   2154486998                       # number of demand (read+write) MSHR miss ticks (Tick)
system.cpu0.icache.demandMshrMissLatency::total   2154486998                       # number of demand (read+write) MSHR miss ticks (Tick)
system.cpu0.icache.overallMshrMissLatency::switch_cpus0.inst   2154486998                       # number of overall MSHR miss ticks (Tick)
system.cpu0.icache.overallMshrMissLatency::total   2154486998                       # number of overall MSHR miss ticks (Tick)
system.cpu0.icache.demandMshrMissRate::switch_cpus0.inst     0.008980                       # mshr miss ratio for demand accesses (Ratio)
system.cpu0.icache.demandMshrMissRate::total     0.008980                       # mshr miss ratio for demand accesses (Ratio)
system.cpu0.icache.overallMshrMissRate::switch_cpus0.inst     0.008980                       # mshr miss ratio for overall accesses (Ratio)
system.cpu0.icache.overallMshrMissRate::total     0.008980                       # mshr miss ratio for overall accesses (Ratio)
system.cpu0.icache.demandAvgMshrMissLatency::switch_cpus0.inst 75258.034023                       # average overall mshr miss latency ((Tick/Count))
system.cpu0.icache.demandAvgMshrMissLatency::total 75258.034023                       # average overall mshr miss latency ((Tick/Count))
system.cpu0.icache.overallAvgMshrMissLatency::switch_cpus0.inst 75258.034023                       # average overall mshr miss latency ((Tick/Count))
system.cpu0.icache.overallAvgMshrMissLatency::total 75258.034023                       # average overall mshr miss latency ((Tick/Count))
system.cpu0.icache.replacements                 28121                       # number of replacements (Count)
system.cpu0.icache.ReadReq.hits::cpu0.inst            6                       # number of ReadReq hits (Count)
system.cpu0.icache.ReadReq.hits::switch_cpus0.inst      3153894                       # number of ReadReq hits (Count)
system.cpu0.icache.ReadReq.hits::total        3153900                       # number of ReadReq hits (Count)
system.cpu0.icache.ReadReq.misses::cpu0.inst            5                       # number of ReadReq misses (Count)
system.cpu0.icache.ReadReq.misses::switch_cpus0.inst        34122                       # number of ReadReq misses (Count)
system.cpu0.icache.ReadReq.misses::total        34127                       # number of ReadReq misses (Count)
system.cpu0.icache.ReadReq.missLatency::switch_cpus0.inst   2505319494                       # number of ReadReq miss ticks (Tick)
system.cpu0.icache.ReadReq.missLatency::total   2505319494                       # number of ReadReq miss ticks (Tick)
system.cpu0.icache.ReadReq.accesses::cpu0.inst           11                       # number of ReadReq accesses(hits+misses) (Count)
system.cpu0.icache.ReadReq.accesses::switch_cpus0.inst      3188016                       # number of ReadReq accesses(hits+misses) (Count)
system.cpu0.icache.ReadReq.accesses::total      3188027                       # number of ReadReq accesses(hits+misses) (Count)
system.cpu0.icache.ReadReq.missRate::cpu0.inst     0.454545                       # miss rate for ReadReq accesses (Ratio)
system.cpu0.icache.ReadReq.missRate::switch_cpus0.inst     0.010703                       # miss rate for ReadReq accesses (Ratio)
system.cpu0.icache.ReadReq.missRate::total     0.010705                       # miss rate for ReadReq accesses (Ratio)
system.cpu0.icache.ReadReq.avgMissLatency::switch_cpus0.inst 73422.410586                       # average ReadReq miss latency ((Tick/Count))
system.cpu0.icache.ReadReq.avgMissLatency::total 73411.653354                       # average ReadReq miss latency ((Tick/Count))
system.cpu0.icache.ReadReq.mshrHits::switch_cpus0.inst         5494                       # number of ReadReq MSHR hits (Count)
system.cpu0.icache.ReadReq.mshrHits::total         5494                       # number of ReadReq MSHR hits (Count)
system.cpu0.icache.ReadReq.mshrMisses::switch_cpus0.inst        28628                       # number of ReadReq MSHR misses (Count)
system.cpu0.icache.ReadReq.mshrMisses::total        28628                       # number of ReadReq MSHR misses (Count)
system.cpu0.icache.ReadReq.mshrMissLatency::switch_cpus0.inst   2154486998                       # number of ReadReq MSHR miss ticks (Tick)
system.cpu0.icache.ReadReq.mshrMissLatency::total   2154486998                       # number of ReadReq MSHR miss ticks (Tick)
system.cpu0.icache.ReadReq.mshrMissRate::switch_cpus0.inst     0.008980                       # mshr miss rate for ReadReq accesses (Ratio)
system.cpu0.icache.ReadReq.mshrMissRate::total     0.008980                       # mshr miss rate for ReadReq accesses (Ratio)
system.cpu0.icache.ReadReq.avgMshrMissLatency::switch_cpus0.inst 75258.034023                       # average ReadReq mshr miss latency ((Tick/Count))
system.cpu0.icache.ReadReq.avgMshrMissLatency::total 75258.034023                       # average ReadReq mshr miss latency ((Tick/Count))
system.cpu0.icache.power_state.pwrStateResidencyTicks::UNDEFINED 4778010135000                       # Cumulative time (in ticks) in various power states (Tick)
system.cpu0.icache.tags.tagsInUse          478.589004                       # Average ticks per tags in use ((Tick/Count))
system.cpu0.icache.tags.totalRefs             3182533                       # Total number of references to valid blocks. (Count)
system.cpu0.icache.tags.sampledRefs             28633                       # Sample count of references to valid blocks. (Count)
system.cpu0.icache.tags.avgRefs            111.149129                       # Average number of references to valid blocks. ((Count/Count))
system.cpu0.icache.tags.warmupTick       4695629801500                       # The tick when the warmup percentage was hit. (Tick)
system.cpu0.icache.tags.occupancies::cpu0.inst     0.208844                       # Average occupied blocks per tick, per requestor ((Count/Tick))
system.cpu0.icache.tags.occupancies::switch_cpus0.inst   478.380160                       # Average occupied blocks per tick, per requestor ((Count/Tick))
system.cpu0.icache.tags.avgOccs::cpu0.inst     0.000408                       # Average percentage of cache occupancy ((Ratio/Tick))
system.cpu0.icache.tags.avgOccs::switch_cpus0.inst     0.934336                       # Average percentage of cache occupancy ((Ratio/Tick))
system.cpu0.icache.tags.avgOccs::total       0.934744                       # Average percentage of cache occupancy ((Ratio/Tick))
system.cpu0.icache.tags.occupanciesTaskId::1024          512                       # Occupied blocks per task id (Count)
system.cpu0.icache.tags.ageTaskId_1024::2          279                       # Occupied blocks per task id, per block age (Count)
system.cpu0.icache.tags.ageTaskId_1024::3          233                       # Occupied blocks per task id, per block age (Count)
system.cpu0.icache.tags.ratioOccsTaskId::1024            1                       # Ratio of occupied blocks and all blocks, per task id (Ratio)
system.cpu0.icache.tags.tagAccesses           6404687                       # Number of tag accesses (Count)
system.cpu0.icache.tags.dataAccesses          6404687                       # Number of data accesses (Count)
system.cpu0.icache.tags.power_state.pwrStateResidencyTicks::UNDEFINED 4778010135000                       # Cumulative time (in ticks) in various power states (Tick)
system.cpu0.interrupts.clk_domain.clock          8000                       # Clock period in ticks (Tick)
system.cpu0.itb_walker_cache.demandHits::switch_cpus0.mmu.itb.walker         1713                       # number of demand (read+write) hits (Count)
system.cpu0.itb_walker_cache.demandHits::total         1713                       # number of demand (read+write) hits (Count)
system.cpu0.itb_walker_cache.overallHits::switch_cpus0.mmu.itb.walker         1713                       # number of overall hits (Count)
system.cpu0.itb_walker_cache.overallHits::total         1713                       # number of overall hits (Count)
system.cpu0.itb_walker_cache.demandMisses::switch_cpus0.mmu.itb.walker          601                       # number of demand (read+write) misses (Count)
system.cpu0.itb_walker_cache.demandMisses::total          601                       # number of demand (read+write) misses (Count)
system.cpu0.itb_walker_cache.overallMisses::switch_cpus0.mmu.itb.walker          601                       # number of overall misses (Count)
system.cpu0.itb_walker_cache.overallMisses::total          601                       # number of overall misses (Count)
system.cpu0.itb_walker_cache.demandMissLatency::switch_cpus0.mmu.itb.walker     50796500                       # number of demand (read+write) miss ticks (Tick)
system.cpu0.itb_walker_cache.demandMissLatency::total     50796500                       # number of demand (read+write) miss ticks (Tick)
system.cpu0.itb_walker_cache.overallMissLatency::switch_cpus0.mmu.itb.walker     50796500                       # number of overall miss ticks (Tick)
system.cpu0.itb_walker_cache.overallMissLatency::total     50796500                       # number of overall miss ticks (Tick)
system.cpu0.itb_walker_cache.demandAccesses::switch_cpus0.mmu.itb.walker         2314                       # number of demand (read+write) accesses (Count)
system.cpu0.itb_walker_cache.demandAccesses::total         2314                       # number of demand (read+write) accesses (Count)
system.cpu0.itb_walker_cache.overallAccesses::switch_cpus0.mmu.itb.walker         2314                       # number of overall (read+write) accesses (Count)
system.cpu0.itb_walker_cache.overallAccesses::total         2314                       # number of overall (read+write) accesses (Count)
system.cpu0.itb_walker_cache.demandMissRate::switch_cpus0.mmu.itb.walker     0.259723                       # miss rate for demand accesses (Ratio)
system.cpu0.itb_walker_cache.demandMissRate::total     0.259723                       # miss rate for demand accesses (Ratio)
system.cpu0.itb_walker_cache.overallMissRate::switch_cpus0.mmu.itb.walker     0.259723                       # miss rate for overall accesses (Ratio)
system.cpu0.itb_walker_cache.overallMissRate::total     0.259723                       # miss rate for overall accesses (Ratio)
system.cpu0.itb_walker_cache.demandAvgMissLatency::switch_cpus0.mmu.itb.walker 84519.966722                       # average overall miss latency in ticks ((Tick/Count))
system.cpu0.itb_walker_cache.demandAvgMissLatency::total 84519.966722                       # average overall miss latency in ticks ((Tick/Count))
system.cpu0.itb_walker_cache.overallAvgMissLatency::switch_cpus0.mmu.itb.walker 84519.966722                       # average overall miss latency ((Tick/Count))
system.cpu0.itb_walker_cache.overallAvgMissLatency::total 84519.966722                       # average overall miss latency ((Tick/Count))
system.cpu0.itb_walker_cache.blockedCycles::no_mshrs            0                       # number of cycles access was blocked (Cycle)
system.cpu0.itb_walker_cache.blockedCycles::no_targets            0                       # number of cycles access was blocked (Cycle)
system.cpu0.itb_walker_cache.blockedCauses::no_mshrs            0                       # number of times access was blocked (Count)
system.cpu0.itb_walker_cache.blockedCauses::no_targets            0                       # number of times access was blocked (Count)
system.cpu0.itb_walker_cache.avgBlocked::no_mshrs          nan                       # average number of cycles each access was blocked ((Cycle/Count))
system.cpu0.itb_walker_cache.avgBlocked::no_targets          nan                       # average number of cycles each access was blocked ((Cycle/Count))
system.cpu0.itb_walker_cache.demandMshrMisses::switch_cpus0.mmu.itb.walker          601                       # number of demand (read+write) MSHR misses (Count)
system.cpu0.itb_walker_cache.demandMshrMisses::total          601                       # number of demand (read+write) MSHR misses (Count)
system.cpu0.itb_walker_cache.overallMshrMisses::switch_cpus0.mmu.itb.walker          601                       # number of overall MSHR misses (Count)
system.cpu0.itb_walker_cache.overallMshrMisses::total          601                       # number of overall MSHR misses (Count)
system.cpu0.itb_walker_cache.demandMshrMissLatency::switch_cpus0.mmu.itb.walker     50195500                       # number of demand (read+write) MSHR miss ticks (Tick)
system.cpu0.itb_walker_cache.demandMshrMissLatency::total     50195500                       # number of demand (read+write) MSHR miss ticks (Tick)
system.cpu0.itb_walker_cache.overallMshrMissLatency::switch_cpus0.mmu.itb.walker     50195500                       # number of overall MSHR miss ticks (Tick)
system.cpu0.itb_walker_cache.overallMshrMissLatency::total     50195500                       # number of overall MSHR miss ticks (Tick)
system.cpu0.itb_walker_cache.demandMshrMissRate::switch_cpus0.mmu.itb.walker     0.259723                       # mshr miss ratio for demand accesses (Ratio)
system.cpu0.itb_walker_cache.demandMshrMissRate::total     0.259723                       # mshr miss ratio for demand accesses (Ratio)
system.cpu0.itb_walker_cache.overallMshrMissRate::switch_cpus0.mmu.itb.walker     0.259723                       # mshr miss ratio for overall accesses (Ratio)
system.cpu0.itb_walker_cache.overallMshrMissRate::total     0.259723                       # mshr miss ratio for overall accesses (Ratio)
system.cpu0.itb_walker_cache.demandAvgMshrMissLatency::switch_cpus0.mmu.itb.walker 83519.966722                       # average overall mshr miss latency ((Tick/Count))
system.cpu0.itb_walker_cache.demandAvgMshrMissLatency::total 83519.966722                       # average overall mshr miss latency ((Tick/Count))
system.cpu0.itb_walker_cache.overallAvgMshrMissLatency::switch_cpus0.mmu.itb.walker 83519.966722                       # average overall mshr miss latency ((Tick/Count))
system.cpu0.itb_walker_cache.overallAvgMshrMissLatency::total 83519.966722                       # average overall mshr miss latency ((Tick/Count))
system.cpu0.itb_walker_cache.replacements          570                       # number of replacements (Count)
system.cpu0.itb_walker_cache.ReadReq.hits::switch_cpus0.mmu.itb.walker         1713                       # number of ReadReq hits (Count)
system.cpu0.itb_walker_cache.ReadReq.hits::total         1713                       # number of ReadReq hits (Count)
system.cpu0.itb_walker_cache.ReadReq.misses::switch_cpus0.mmu.itb.walker          601                       # number of ReadReq misses (Count)
system.cpu0.itb_walker_cache.ReadReq.misses::total          601                       # number of ReadReq misses (Count)
system.cpu0.itb_walker_cache.ReadReq.missLatency::switch_cpus0.mmu.itb.walker     50796500                       # number of ReadReq miss ticks (Tick)
system.cpu0.itb_walker_cache.ReadReq.missLatency::total     50796500                       # number of ReadReq miss ticks (Tick)
system.cpu0.itb_walker_cache.ReadReq.accesses::switch_cpus0.mmu.itb.walker         2314                       # number of ReadReq accesses(hits+misses) (Count)
system.cpu0.itb_walker_cache.ReadReq.accesses::total         2314                       # number of ReadReq accesses(hits+misses) (Count)
system.cpu0.itb_walker_cache.ReadReq.missRate::switch_cpus0.mmu.itb.walker     0.259723                       # miss rate for ReadReq accesses (Ratio)
system.cpu0.itb_walker_cache.ReadReq.missRate::total     0.259723                       # miss rate for ReadReq accesses (Ratio)
system.cpu0.itb_walker_cache.ReadReq.avgMissLatency::switch_cpus0.mmu.itb.walker 84519.966722                       # average ReadReq miss latency ((Tick/Count))
system.cpu0.itb_walker_cache.ReadReq.avgMissLatency::total 84519.966722                       # average ReadReq miss latency ((Tick/Count))
system.cpu0.itb_walker_cache.ReadReq.mshrMisses::switch_cpus0.mmu.itb.walker          601                       # number of ReadReq MSHR misses (Count)
system.cpu0.itb_walker_cache.ReadReq.mshrMisses::total          601                       # number of ReadReq MSHR misses (Count)
system.cpu0.itb_walker_cache.ReadReq.mshrMissLatency::switch_cpus0.mmu.itb.walker     50195500                       # number of ReadReq MSHR miss ticks (Tick)
system.cpu0.itb_walker_cache.ReadReq.mshrMissLatency::total     50195500                       # number of ReadReq MSHR miss ticks (Tick)
system.cpu0.itb_walker_cache.ReadReq.mshrMissRate::switch_cpus0.mmu.itb.walker     0.259723                       # mshr miss rate for ReadReq accesses (Ratio)
system.cpu0.itb_walker_cache.ReadReq.mshrMissRate::total     0.259723                       # mshr miss rate for ReadReq accesses (Ratio)
system.cpu0.itb_walker_cache.ReadReq.avgMshrMissLatency::switch_cpus0.mmu.itb.walker 83519.966722                       # average ReadReq mshr miss latency ((Tick/Count))
system.cpu0.itb_walker_cache.ReadReq.avgMshrMissLatency::total 83519.966722                       # average ReadReq mshr miss latency ((Tick/Count))
system.cpu0.itb_walker_cache.power_state.pwrStateResidencyTicks::UNDEFINED 4778010135000                       # Cumulative time (in ticks) in various power states (Tick)
system.cpu0.itb_walker_cache.tags.tagsInUse     9.628727                       # Average ticks per tags in use ((Tick/Count))
system.cpu0.itb_walker_cache.tags.totalRefs         2314                       # Total number of references to valid blocks. (Count)
system.cpu0.itb_walker_cache.tags.sampledRefs          601                       # Sample count of references to valid blocks. (Count)
system.cpu0.itb_walker_cache.tags.avgRefs     3.850250                       # Average number of references to valid blocks. ((Count/Count))
system.cpu0.itb_walker_cache.tags.warmupTick 4695629889000                       # The tick when the warmup percentage was hit. (Tick)
system.cpu0.itb_walker_cache.tags.occupancies::switch_cpus0.mmu.itb.walker     9.628727                       # Average occupied blocks per tick, per requestor ((Count/Tick))
system.cpu0.itb_walker_cache.tags.avgOccs::switch_cpus0.mmu.itb.walker     0.601795                       # Average percentage of cache occupancy ((Ratio/Tick))
system.cpu0.itb_walker_cache.tags.avgOccs::total     0.601795                       # Average percentage of cache occupancy ((Ratio/Tick))
system.cpu0.itb_walker_cache.tags.occupanciesTaskId::1024           16                       # Occupied blocks per task id (Count)
system.cpu0.itb_walker_cache.tags.ageTaskId_1024::3           16                       # Occupied blocks per task id, per block age (Count)
[...]
system.switch_cpus3.fetch.nisnDist::stdev     2.799420                       # Number of instructions fetched each cycle (Total) (Count)
system.switch_cpus3.fetch.nisnDist::underflows            0      0.00%      0.00% # Number of instructions fetched each cycle (Total) (Count)
system.switch_cpus3.fetch.nisnDist::0        33937846     74.00%     74.00% # Number of instructions fetched each cycle (Total) (Count)
system.switch_cpus3.fetch.nisnDist::1         1336842      2.91%     76.92% # Number of instructions fetched each cycle (Total) (Count)
system.switch_cpus3.fetch.nisnDist::2          275930      0.60%     77.52% # Number of instructions fetched each cycle (Total) (Count)
system.switch_cpus3.fetch.nisnDist::3          905415      1.97%     79.49% # Number of instructions fetched each cycle (Total) (Count)
system.switch_cpus3.fetch.nisnDist::4         2255752      4.92%     84.41% # Number of instructions fetched each cycle (Total) (Count)
system.switch_cpus3.fetch.nisnDist::5          352002      0.77%     85.18% # Number of instructions fetched each cycle (Total) (Count)
system.switch_cpus3.fetch.nisnDist::6          560820      1.22%     86.40% # Number of instructions fetched each cycle (Total) (Count)
system.switch_cpus3.fetch.nisnDist::7         1052244      2.29%     88.70% # Number of instructions fetched each cycle (Total) (Count)
system.switch_cpus3.fetch.nisnDist::8         5184272     11.30%    100.00% # Number of instructions fetched each cycle (Total) (Count)
system.switch_cpus3.fetch.nisnDist::overflows            0      0.00%    100.00% # Number of instructions fetched each cycle (Total) (Count)
system.switch_cpus3.fetch.nisnDist::min_value            0                       # Number of instructions fetched each cycle (Total) (Count)
system.switch_cpus3.fetch.nisnDist::max_value            8                       # Number of instructions fetched each cycle (Total) (Count)
system.switch_cpus3.fetch.nisnDist::total     45861123                       # Number of instructions fetched each cycle (Total) (Count)
system.switch_cpus3.fetchStats0.numInsts     38733148                       # Number of instructions fetched (thread level) (Count)
system.switch_cpus3.fetchStats0.numOps              0                       # Number of ops (including micro ops) fetched (thread level) (Count)
system.switch_cpus3.fetchStats0.fetchRate     0.788038                       # Number of inst fetches per cycle ((Count/Cycle))
system.switch_cpus3.fetchStats0.numBranches      9909737                       # Number of branches fetched (Count)
system.switch_cpus3.fetchStats0.branchRate     0.201617                       # Number of branch fetches per cycle (Ratio)
system.switch_cpus3.fetchStats0.icacheStallCycles      4681709                       # ICache total stall cycles (Cycle)
system.switch_cpus3.fetchStats0.numFetchSuspends            0                       # Number of times Execute suspended instruction fetching (Count)
system.switch_cpus3.iew.idleCycles                  0                       # Number of cycles IEW is idle (Cycle)
system.switch_cpus3.iew.squashCycles           306531                       # Number of cycles IEW is squashing (Cycle)
system.switch_cpus3.iew.blockCycles          22372421                       # Number of cycles IEW is blocking (Cycle)
system.switch_cpus3.iew.unblockCycles          468073                       # Number of cycles IEW is unblocking (Cycle)
system.switch_cpus3.iew.dispatchedInsts      59768566                       # Number of instructions dispatched to IQ (Count)
system.switch_cpus3.iew.dispSquashedInsts        57911                       # Number of squashed instructions skipped by dispatch (Count)
system.switch_cpus3.iew.dispLoadInsts         6778704                       # Number of dispatched load instructions (Count)
system.switch_cpus3.iew.dispStoreInsts        1936118                       # Number of dispatched store instructions (Count)
system.switch_cpus3.iew.dispNonSpecInsts       165509                       # Number of dispatched non-speculative instructions (Count)
system.switch_cpus3.iew.iqFullEvents            76503                       # Number of times the IQ has become full, causing a stall (Count)
system.switch_cpus3.iew.lsqFullEvents          243858                       # Number of times the LSQ has become full, causing a stall (Count)
system.switch_cpus3.iew.memOrderViolationEvents         2905                       # Number of memory order violations (Count)
system.switch_cpus3.iew.predictedTakenIncorrect       197401                       # Number of branches that were predicted taken incorrectly (Count)
system.switch_cpus3.iew.predictedNotTakenIncorrect       161561                       # Number of branches that were predicted not taken incorrectly (Count)
system.switch_cpus3.iew.branchMispredicts       358962                       # Number of branch mispredicts detected at execute (Count)
system.switch_cpus3.iew.instsToCommit        54673971                       # Cumulative count of insts sent to commit (Count)
system.switch_cpus3.iew.writebackCount       54493929                       # Cumulative count of insts written-back (Count)
system.switch_cpus3.iew.producerInst         39908097                       # Number of instructions producing a value (Count)
system.switch_cpus3.iew.consumerInst         55754354                       # Number of instructions consuming a value (Count)
system.switch_cpus3.iew.wbRate               1.108696                       # Insts written-back per cycle ((Count/Cycle))
system.switch_cpus3.iew.wbFanout             0.715784                       # Average fanout of values written-back ((Count/Count))
system.switch_cpus3.lsq0.forwLoads             227651                       # Number of loads that had data forwarded from stores (Count)
system.switch_cpus3.lsq0.squashedLoads        1755911                       # Number of loads squashed (Count)
system.switch_cpus3.lsq0.ignoredResponses         1451                       # Number of memory responses ignored because the instruction is squashed (Count)
system.switch_cpus3.lsq0.memOrderViolation         2905                       # Number of memory ordering violations (Count)
system.switch_cpus3.lsq0.squashedStores        849174                       # Number of stores squashed (Count)
system.switch_cpus3.lsq0.rescheduledLoads          226                       # Number of loads that were rescheduled (Count)
system.switch_cpus3.lsq0.blockedByCache          1608                       # Number of times an access to memory failed due to the cache being blocked (Count)
system.switch_cpus3.lsq0.loadToUse::samples      5022447                       # Distribution of cycle latency between the first time a load is issued and its completion (Unspecified)
system.switch_cpus3.lsq0.loadToUse::mean     8.701554                       # Distribution of cycle latency between the first time a load is issued and its completion (Unspecified)
system.switch_cpus3.lsq0.loadToUse::stdev    53.327698                       # Distribution of cycle latency between the first time a load is issued and its completion (Unspecified)
system.switch_cpus3.lsq0.loadToUse::0-9       4783583     95.24%     95.24% # Distribution of cycle latency between the first time a load is issued and its completion (Unspecified)
system.switch_cpus3.lsq0.loadToUse::10-19         5675      0.11%     95.36% # Distribution of cycle latency between the first time a load is issued and its completion (Unspecified)
system.switch_cpus3.lsq0.loadToUse::20-29        94281      1.88%     97.23% # Distribution of cycle latency between the first time a load is issued and its completion (Unspecified)
system.switch_cpus3.lsq0.loadToUse::30-39         8262      0.16%     97.40% # Distribution of cycle latency between the first time a load is issued and its completion (Unspecified)
system.switch_cpus3.lsq0.loadToUse::40-49         3768      0.08%     97.47% # Distribution of cycle latency between the first time a load is issued and its completion (Unspecified)
system.switch_cpus3.lsq0.loadToUse::50-59         1972      0.04%     97.51% # Distribution of cycle latency between the first time a load is issued and its completion (Unspecified)
system.switch_cpus3.lsq0.loadToUse::60-69         2195      0.04%     97.56% # Distribution of cycle latency between the first time a load is issued and its completion (Unspecified)
system.switch_cpus3.lsq0.loadToUse::70-79         3007      0.06%     97.62% # Distribution of cycle latency between the first time a load is issued and its completion (Unspecified)
system.switch_cpus3.lsq0.loadToUse::80-89         5106      0.10%     97.72% # Distribution of cycle latency between the first time a load is issued and its completion (Unspecified)
system.switch_cpus3.lsq0.loadToUse::90-99         5601      0.11%     97.83% # Distribution of cycle latency between the first time a load is issued and its completion (Unspecified)
system.switch_cpus3.lsq0.loadToUse::100-109        14144      0.28%     98.11% # Distribution of cycle latency between the first time a load is issued and its completion (Unspecified)
system.switch_cpus3.lsq0.loadToUse::110-119         6704      0.13%     98.24% # Distribution of cycle latency between the first time a load is issued and its completion (Unspecified)
system.switch_cpus3.lsq0.loadToUse::120-129         3072      0.06%     98.31% # Distribution of cycle latency between the first time a load is issued and its completion (Unspecified)
system.switch_cpus3.lsq0.loadToUse::130-139         6750      0.13%     98.44% # Distribution of cycle latency between the first time a load is issued and its completion (Unspecified)
system.switch_cpus3.lsq0.loadToUse::140-149         3466      0.07%     98.51% # Distribution of cycle latency between the first time a load is issued and its completion (Unspecified)
system.switch_cpus3.lsq0.loadToUse::150-159         9227      0.18%     98.69% # Distribution of cycle latency between the first time a load is issued and its completion (Unspecified)
system.switch_cpus3.lsq0.loadToUse::160-169        21338      0.42%     99.12% # Distribution of cycle latency between the first time a load is issued and its completion (Unspecified)
system.switch_cpus3.lsq0.loadToUse::170-179         8293      0.17%     99.28% # Distribution of cycle latency between the first time a load is issued and its completion (Unspecified)
system.switch_cpus3.lsq0.loadToUse::180-189         3477      0.07%     99.35% # Distribution of cycle latency between the first time a load is issued and its completion (Unspecified)
system.switch_cpus3.lsq0.loadToUse::190-199         2360      0.05%     99.40% # Distribution of cycle latency between the first time a load is issued and its completion (Unspecified)
system.switch_cpus3.lsq0.loadToUse::200-209         2700      0.05%     99.45% # Distribution of cycle latency between the first time a load is issued and its completion (Unspecified)
system.switch_cpus3.lsq0.loadToUse::210-219         2802      0.06%     99.51% # Distribution of cycle latency between the first time a load is issued and its completion (Unspecified)
system.switch_cpus3.lsq0.loadToUse::220-229         1482      0.03%     99.54% # Distribution of cycle latency between the first time a load is issued and its completion (Unspecified)
system.switch_cpus3.lsq0.loadToUse::230-239         1392      0.03%     99.57% # Distribution of cycle latency between the first time a load is issued and its completion (Unspecified)
system.switch_cpus3.lsq0.loadToUse::240-249         1328      0.03%     99.59% # Distribution of cycle latency between the first time a load is issued and its completion (Unspecified)
system.switch_cpus3.lsq0.loadToUse::250-259         1314      0.03%     99.62% # Distribution of cycle latency between the first time a load is issued and its completion (Unspecified)
system.switch_cpus3.lsq0.loadToUse::260-269         2418      0.05%     99.67% # Distribution of cycle latency between the first time a load is issued and its completion (Unspecified)
system.switch_cpus3.lsq0.loadToUse::270-279         1036      0.02%     99.69% # Distribution of cycle latency between the first time a load is issued and its completion (Unspecified)
system.switch_cpus3.lsq0.loadToUse::280-289          775      0.02%     99.70% # Distribution of cycle latency between the first time a load is issued and its completion (Unspecified)
system.switch_cpus3.lsq0.loadToUse::290-299          714      0.01%     99.72% # Distribution of cycle latency between the first time a load is issued and its completion (Unspecified)
system.switch_cpus3.lsq0.loadToUse::overflows        14205      0.28%    100.00% # Distribution of cycle latency between the first time a load is issued and its completion (Unspecified)
system.switch_cpus3.lsq0.loadToUse::min_value            2                       # Distribution of cycle latency between the first time a load is issued and its completion (Unspecified)
system.switch_cpus3.lsq0.loadToUse::max_value         9603                       # Distribution of cycle latency between the first time a load is issued and its completion (Unspecified)
system.switch_cpus3.lsq0.loadToUse::total      5022447                       # Distribution of cycle latency between the first time a load is issued and its completion (Unspecified)
system.switch_cpus3.mmu.dtb.rdAccesses        5853309                       # TLB accesses on read requests (Count)
system.switch_cpus3.mmu.dtb.wrAccesses        1448530                       # TLB accesses on write requests (Count)
system.switch_cpus3.mmu.dtb.rdMisses            11818                       # TLB misses on read requests (Count)
system.switch_cpus3.mmu.dtb.wrMisses            56492                       # TLB misses on write requests (Count)
system.switch_cpus3.mmu.dtb.walker.power_state.pwrStateResidencyTicks::UNDEFINED 4778010135000                       # Cumulative time (in ticks) in various power states (Tick)
system.switch_cpus3.mmu.itb.rdAccesses              0                       # TLB accesses on read requests (Count)
system.switch_cpus3.mmu.itb.wrAccesses        3158084                       # TLB accesses on write requests (Count)
system.switch_cpus3.mmu.itb.rdMisses                0                       # TLB misses on read requests (Count)
system.switch_cpus3.mmu.itb.wrMisses              969                       # TLB misses on write requests (Count)
system.switch_cpus3.mmu.itb.walker.power_state.pwrStateResidencyTicks::UNDEFINED 4778010135000                       # Cumulative time (in ticks) in various power states (Tick)
system.switch_cpus3.power_state.numTransitions          164                       # Number of power state transitions (Count)
system.switch_cpus3.power_state.ticksClkGated::samples           82                       # Distribution of time spent in the clock gated state (Tick)
system.switch_cpus3.power_state.ticksClkGated::mean 704935054.902439                       # Distribution of time spent in the clock gated state (Tick)
system.switch_cpus3.power_state.ticksClkGated::stdev 364794025.511842                       # Distribution of time spent in the clock gated state (Tick)
system.switch_cpus3.power_state.ticksClkGated::1000-5e+10           82    100.00%    100.00% # Distribution of time spent in the clock gated state (Tick)
system.switch_cpus3.power_state.ticksClkGated::min_value      9493500                       # Distribution of time spent in the clock gated state (Tick)
system.switch_cpus3.power_state.ticksClkGated::max_value    997414000                       # Distribution of time spent in the clock gated state (Tick)
system.switch_cpus3.power_state.ticksClkGated::total           82                       # Distribution of time spent in the clock gated state (Tick)
system.switch_cpus3.power_state.pwrStateResidencyTicks::ON  24571183998                       # Cumulative time (in ticks) in various power states (Tick)
system.switch_cpus3.power_state.pwrStateResidencyTicks::CLK_GATED  57804674502                       # Cumulative time (in ticks) in various power states (Tick)
system.switch_cpus3.power_state.pwrStateResidencyTicks::OFF      4475500                       # Cumulative time (in ticks) in various power states (Tick)
system.switch_cpus3.rename.squashCycles        306531                       # Number of cycles rename is squashing (Cycle)
system.switch_cpus3.rename.idleCycles         4707908                       # Number of cycles rename is idle (Cycle)
system.switch_cpus3.rename.blockCycles       25532876                       # Number of cycles rename is blocking (Cycle)
system.switch_cpus3.rename.serializeStallCycles       791013                       # count of cycles rename stalled for serializing inst (Cycle)
system.switch_cpus3.rename.runCycles         10020164                       # Number of cycles rename is running (Cycle)
system.switch_cpus3.rename.unblockCycles      4502623                       # Number of cycles rename is unblocking (Cycle)
system.switch_cpus3.rename.renamedInsts      62934587                       # Number of instructions processed by rename (Count)
system.switch_cpus3.rename.ROBFullEvents        39820                       # Number of times rename has blocked due to ROB full (Count)
system.switch_cpus3.rename.IQFullEvents       1978288                       # Number of times rename has blocked due to IQ full (Count)
system.switch_cpus3.rename.LQFullEvents        188860                       # Number of times rename has blocked due to LQ full (Count)
system.switch_cpus3.rename.SQFullEvents       2072090                       # Number of times rename has blocked due to SQ full (Count)
system.switch_cpus3.rename.renamedOperands    119798413                       # Number of destination operands rename has renamed (Count)
system.switch_cpus3.rename.lookups          218044905                       # Number of register rename lookups that rename has made (Count)
system.switch_cpus3.rename.intLookups        65425649                       # Number of integer rename lookups (Count)
system.switch_cpus3.rename.fpLookups          1089339                       # Number of floating rename lookups (Count)
system.switch_cpus3.rename.committedMaps     88103949                       # Number of HB maps that are committed (Count)
system.switch_cpus3.rename.undoneMaps        31694409                       # Number of HB maps that are undone due to squashing (Count)
system.switch_cpus3.rename.serializing          16503                       # count of serializing insts renamed (Count)
system.switch_cpus3.rename.tempSerializing        16345                       # count of temporary serializing insts renamed (Count)
system.switch_cpus3.rename.skidInsts          4982163                       # count of insts added to the skid buffer (Count)
system.switch_cpus3.rob.reads               103174330                       # The number of ROB reads (Count)
system.switch_cpus3.rob.writes              121333074                       # The number of ROB writes (Count)
system.switch_cpus3.thread_0.numInsts        26100704                       # Number of Instructions committed (Count)
system.switch_cpus3.thread_0.numOps          46553644                       # Number of Ops committed (Count)
system.switch_cpus3.thread_0.numMemRefs             0                       # Number of Memory References (Count)
system.voltage_domain.voltage                       1                       # Voltage in Volts (Volt)
system.workload.inst.arm                            0                       # number of arm instructions executed (Count)
system.workload.inst.quiesce                        0                       # number of quiesce instructions executed (Count)

---------- End Simulation Statistics   ----------
