
---------- Begin Simulation Statistics ----------
simSeconds                                   2.560591                       # Number of seconds simulated (Second)
simTicks                                 2560590683000                       # Number of ticks simulated (Tick)
finalTick                                7256220484000                       # Number of ticks from beginning of simulation (restored from checkpoints and never reset) (Tick)
simFreq                                  1000000000000                       # The number of ticks per simulated second ((Tick/Second))
hostSeconds                                   6241.90                       # Real time elapsed on the host (Second)
hostTickRate                                410226398                       # The number of ticks simulated per host second (ticks/s) ((Tick/Second))
hostMemory                                    1532024                       # Number of bytes of host memory used (Byte)
simInsts                                    345868929                       # Number of instructions simulated (Count)
simOps                                      754120391                       # Number of ops (including micro ops) simulated (Count)
hostInstRate                                    55411                       # Simulator instruction rate (inst/s) ((Count/Second))
hostOpRate                                     120816                       # Simulator op (including micro ops) rate (op/s) ((Count/Second))
system.apicbridge.power_state.pwrStateResidencyTicks::UNDEFINED 7256220484000                       # Cumulative time (in ticks) in various power states (Tick)
system.bridge.power_state.pwrStateResidencyTicks::UNDEFINED 7256220484000                       # Cumulative time (in ticks) in various power states (Tick)
system.clk_domain.clock                          1000                       # Clock period in ticks (Tick)
system.cpu0.numCycles                              22                       # Number of cpu cycles simulated (Cycle)
system.cpu0.cpi                              2.750000                       # CPI: cycles per instruction (core level) ((Cycle/Count))
system.cpu0.ipc                              0.363636                       # IPC: instructions per cycle (core level) ((Count/Cycle))
system.cpu0.numWorkItemsStarted                     0                       # Number of work items this cpu started (Count)
system.cpu0.numWorkItemsCompleted                   0                       # Number of work items this cpu completed (Count)
system.cpu0.commitStats0.numInsts                   8                       # Number of instructions committed (thread level) (Count)
system.cpu0.commitStats0.numOps                    19                       # Number of ops (including micro ops) committed (thread level) (Count)
system.cpu0.commitStats0.numInstsNotNOP             0                       # Number of instructions committed excluding NOPs or prefetches (Count)
system.cpu0.commitStats0.numOpsNotNOP               0                       # Number of Ops (including micro ops) Simulated (Count)
system.cpu0.commitStats0.cpi                 2.750000                       # CPI: cycles per instruction (thread level) ((Cycle/Count))
system.cpu0.commitStats0.ipc                 0.363636                       # IPC: instructions per cycle (thread level) ((Count/Cycle))
system.cpu0.commitStats0.numMemRefs                 0                       # Number of memory references committed (Count)
system.cpu0.commitStats0.numFpInsts                 0                       # Number of float instructions (Count)
system.cpu0.commitStats0.numIntInsts               19                       # Number of integer instructions (Count)
system.cpu0.commitStats0.numLoadInsts               3                       # Number of load instructions (Count)
system.cpu0.commitStats0.numStoreInsts              0                       # Number of store instructions (Count)
system.cpu0.commitStats0.numVecInsts                0                       # Number of vector instructions (Count)
system.cpu0.commitStats0.committedInstType::No_OpClass            0      0.00%      0.00% # Class of committed instruction. (Count)
system.cpu0.commitStats0.committedInstType::IntAlu           16     84.21%     84.21% # Class of committed instruction. (Count)
system.cpu0.commitStats0.committedInstType::IntMult            0      0.00%     84.21% # Class of committed instruction. (Count)
system.cpu0.commitStats0.committedInstType::ZeroMult            0      0.00%     84.21% # Class of committed instruction. (Count)
system.cpu0.commitStats0.committedInstType::IntDiv            0      0.00%     84.21% # Class of committed instruction. (Count)
system.cpu0.commitStats0.committedInstType::FloatAdd            0      0.00%     84.21% # Class of committed instruction. (Count)
system.cpu0.commitStats0.committedInstType::FloatCmp            0      0.00%     84.21% # Class of committed instruction. (Count)
system.cpu0.commitStats0.committedInstType::FloatCvt            0      0.00%     84.21% # Class of committed instruction. (Count)
system.cpu0.commitStats0.committedInstType::FloatMult            0      0.00%     84.21% # Class of committed instruction. (Count)
system.cpu0.commitStats0.committedInstType::FloatMultAcc            0      0.00%     84.21% # Class of committed instruction. (Count)
system.cpu0.commitStats0.committedInstType::FloatDiv            0      0.00%     84.21% # Class of committed instruction. (Count)
system.cpu0.commitStats0.committedInstType::FloatMisc            0      0.00%     84.21% # Class of committed instruction. (Count)
system.cpu0.commitStats0.committedInstType::FloatSqrt            0      0.00%     84.21% # Class of committed instruction. (Count)
system.cpu0.commitStats0.committedInstType::SimdAdd            0      0.00%     84.21% # Class of committed instruction. (Count)
system.cpu0.commitStats0.committedInstType::SimdAddAcc            0      0.00%     84.21% # Class of committed instruction. (Count)
system.cpu0.commitStats0.committedInstType::SimdAlu            0      0.00%     84.21% # Class of committed instruction. (Count)
system.cpu0.commitStats0.committedInstType::SimdCmp            0      0.00%     84.21% # Class of committed instruction. (Count)
system.cpu0.commitStats0.committedInstType::SimdCvt            0      0.00%     84.21% # Class of committed instruction. (Count)
system.cpu0.commitStats0.committedInstType::SimdMisc            0      0.00%     84.21% # Class of committed instruction. (Count)
system.cpu0.commitStats0.committedInstType::SimdMult            0      0.00%     84.21% # Class of committed instruction. (Count)
system.cpu0.commitStats0.committedInstType::SimdMultAcc            0      0.00%     84.21% # Class of committed instruction. (Count)
system.cpu0.commitStats0.committedInstType::SimdMatMultAcc            0      0.00%     84.21% # Class of committed instruction. (Count)
system.cpu0.commitStats0.committedInstType::SimdShift            0      0.00%     84.21% # Class of committed instruction. (Count)
system.cpu0.commitStats0.committedInstType::SimdShiftAcc            0      0.00%     84.21% # Class of committed instruction. (Count)
system.cpu0.commitStats0.committedInstType::SimdDiv            0      0.00%     84.21% # Class of committed instruction. (Count)
system.cpu0.commitStats0.committedInstType::SimdSqrt            0      0.00%     84.21% # Class of committed instruction. (Count)
system.cpu0.commitStats0.committedInstType::SimdFloatAdd            0      0.00%     84.21% # Class of committed instruction. (Count)
system.cpu0.commitStats0.committedInstType::SimdFloatAlu            0      0.00%     84.21% # Class of committed instruction. (Count)
system.cpu0.commitStats0.committedInstType::SimdFloatCmp            0      0.00%     84.21% # Class of committed instruction. (Count)
system.cpu0.commitStats0.committedInstType::SimdFloatCvt            0      0.00%     84.21% # Class of committed instruction. (Count)
system.cpu0.commitStats0.committedInstType::SimdFloatDiv            0      0.00%     84.21% # Class of committed instruction. (Count)
system.cpu0.commitStats0.committedInstType::SimdFloatMisc            0      0.00%     84.21% # Class of committed instruction. (Count)
system.cpu0.commitStats0.committedInstType::SimdFloatMult            0      0.00%     84.21% # Class of committed instruction. (Count)
system.cpu0.commitStats0.committedInstType::SimdFloatMultAcc            0      0.00%     84.21% # Class of committed instruction. (Count)
system.cpu0.commitStats0.committedInstType::SimdFloatMatMultAcc            0      0.00%     84.21% # Class of committed instruction. (Count)
system.cpu0.commitStats0.committedInstType::SimdFloatSqrt            0      0.00%     84.21% # Class of committed instruction. (Count)
system.cpu0.commitStats0.committedInstType::SimdReduceAdd            0      0.00%     84.21% # Class of committed instruction. (Count)
system.cpu0.commitStats0.committedInstType::SimdReduceAlu            0      0.00%     84.21% # Class of committed instruction. (Count)
system.cpu0.commitStats0.committedInstType::SimdReduceCmp            0      0.00%     84.21% # Class of committed instruction. (Count)
system.cpu0.commitStats0.committedInstType::SimdFloatReduceAdd            0      0.00%     84.21% # Class of committed instruction. (Count)
system.cpu0.commitStats0.committedInstType::SimdFloatReduceCmp            0      0.00%     84.21% # Class of committed instruction. (Count)
system.cpu0.commitStats0.committedInstType::SimdAes            0      0.00%     84.21% # Class of committed instruction. (Count)
system.cpu0.commitStats0.committedInstType::SimdAesMix            0      0.00%     84.21% # Class of committed instruction. (Count)
system.cpu0.commitStats0.committedInstType::SimdSha1Hash            0      0.00%     84.21% # Class of committed instruction. (Count)
system.cpu0.commitStats0.committedInstType::SimdSha1Hash2            0      0.00%     84.21% # Class of committed instruction. (Count)
system.cpu0.commitStats0.committedInstType::SimdSha256Hash            0      0.00%     84.21% # Class of committed instruction. (Count)
system.cpu0.commitStats0.committedInstType::SimdSha256Hash2            0      0.00%     84.21% # Class of committed instruction. (Count)
system.cpu0.commitStats0.committedInstType::SimdShaSigma2            0      0.00%     84.21% # Class of committed instruction. (Count)
system.cpu0.commitStats0.committedInstType::SimdShaSigma3            0      0.00%     84.21% # Class of committed instruction. (Count)
system.cpu0.commitStats0.committedInstType::SimdPredAlu            0      0.00%     84.21% # Class of committed instruction. (Count)
system.cpu0.commitStats0.committedInstType::Matrix            0      0.00%     84.21% # Class of committed instruction. (Count)
system.cpu0.commitStats0.committedInstType::MatrixMov            0      0.00%     84.21% # Class of committed instruction. (Count)
system.cpu0.commitStats0.committedInstType::MatrixOP            0      0.00%     84.21% # Class of committed instruction. (Count)
system.cpu0.commitStats0.committedInstType::MemRead            3     15.79%    100.00% # Class of committed instruction. (Count)
system.cpu0.commitStats0.committedInstType::MemWrite            0      0.00%    100.00% # Class of committed instruction. (Count)
system.cpu0.commitStats0.committedInstType::FloatMemRead            0      0.00%    100.00% # Class of committed instruction. (Count)
system.cpu0.commitStats0.committedInstType::FloatMemWrite            0      0.00%    100.00% # Class of committed instruction. (Count)
system.cpu0.commitStats0.committedInstType::IprAccess            0      0.00%    100.00% # Class of committed instruction. (Count)
system.cpu0.commitStats0.committedInstType::InstPrefetch            0      0.00%    100.00% # Class of committed instruction. (Count)
system.cpu0.commitStats0.committedInstType::VectorUnitStrideLoad            0      0.00%    100.00% # Class of committed instruction. (Count)
system.cpu0.commitStats0.committedInstType::VectorUnitStrideStore            0      0.00%    100.00% # Class of committed instruction. (Count)
system.cpu0.commitStats0.committedInstType::VectorUnitStrideMaskLoad            0      0.00%    100.00% # Class of committed instruction. (Count)
system.cpu0.commitStats0.committedInstType::VectorUnitStrideMaskStore            0      0.00%    100.00% # Class of committed instruction. (Count)
system.cpu0.commitStats0.committedInstType::VectorStridedLoad            0      0.00%    100.00% # Class of committed instruction. (Count)
system.cpu0.commitStats0.committedInstType::VectorStridedStore            0      0.00%    100.00% # Class of committed instruction. (Count)
system.cpu0.commitStats0.committedInstType::VectorIndexedLoad            0      0.00%    100.00% # Class of committed instruction. (Count)
system.cpu0.commitStats0.committedInstType::VectorIndexedStore            0      0.00%    100.00% # Class of committed instruction. (Count)
system.cpu0.commitStats0.committedInstType::VectorUnitStrideFaultOnlyFirstLoad            0      0.00%    100.00% # Class of committed instruction. (Count)
system.cpu0.commitStats0.committedInstType::VectorWholeRegisterLoad            0      0.00%    100.00% # Class of committed instruction. (Count)
system.cpu0.commitStats0.committedInstType::VectorWholeRegisterStore            0      0.00%    100.00% # Class of committed instruction. (Count)
system.cpu0.commitStats0.committedInstType::VectorIntegerArith            0      0.00%    100.00% # Class of committed instruction. (Count)
system.cpu0.commitStats0.committedInstType::VectorFloatArith            0      0.00%    100.00% # Class of committed instruction. (Count)
system.cpu0.commitStats0.committedInstType::VectorFloatConvert            0      0.00%    100.00% # Class of committed instruction. (Count)
system.cpu0.commitStats0.committedInstType::VectorIntegerReduce            0      0.00%    100.00% # Class of committed instruction. (Count)
system.cpu0.commitStats0.committedInstType::VectorFloatReduce            0      0.00%    100.00% # Class of committed instruction. (Count)
system.cpu0.commitStats0.committedInstType::VectorMisc            0      0.00%    100.00% # Class of committed instruction. (Count)
system.cpu0.commitStats0.committedInstType::VectorIntegerExtension            0      0.00%    100.00% # Class of committed instruction. (Count)
system.cpu0.commitStats0.committedInstType::VectorConfig            0      0.00%    100.00% # Class of committed instruction. (Count)
system.cpu0.commitStats0.committedInstType::total           19                       # Class of committed instruction. (Count)
system.cpu0.commitStats0.committedControl::IsControl            4                       # Class of control type instructions committed (Count)
system.cpu0.commitStats0.committedControl::IsDirectControl            3                       # Class of control type instructions committed (Count)
system.cpu0.commitStats0.committedControl::IsIndirectControl            1                       # Class of control type instructions committed (Count)
system.cpu0.commitStats0.committedControl::IsCondControl            1                       # Class of control type instructions committed (Count)
system.cpu0.commitStats0.committedControl::IsUncondControl            3                       # Class of control type instructions committed (Count)
system.cpu0.commitStats0.committedControl::IsReturn            1                       # Class of control type instructions committed (Count)
system.cpu0.dcache.demandHits::switch_cpus0.data     24722843                       # number of demand (read+write) hits (Count)
system.cpu0.dcache.demandHits::total         24722843                       # number of demand (read+write) hits (Count)
system.cpu0.dcache.overallHits::switch_cpus0.data     24722911                       # number of overall hits (Count)
system.cpu0.dcache.overallHits::total        24722911                       # number of overall hits (Count)
system.cpu0.dcache.demandMisses::cpu0.data            3                       # number of demand (read+write) misses (Count)
system.cpu0.dcache.demandMisses::switch_cpus0.data      2343386                       # number of demand (read+write) misses (Count)
system.cpu0.dcache.demandMisses::total        2343389                       # number of demand (read+write) misses (Count)
system.cpu0.dcache.overallMisses::cpu0.data            3                       # number of overall misses (Count)
system.cpu0.dcache.overallMisses::switch_cpus0.data      2343578                       # number of overall misses (Count)
system.cpu0.dcache.overallMisses::total       2343581                       # number of overall misses (Count)
system.cpu0.dcache.demandMissLatency::switch_cpus0.data 179370553000                       # number of demand (read+write) miss ticks (Tick)
system.cpu0.dcache.demandMissLatency::total 179370553000                       # number of demand (read+write) miss ticks (Tick)
system.cpu0.dcache.overallMissLatency::switch_cpus0.data 179370553000                       # number of overall miss ticks (Tick)
system.cpu0.dcache.overallMissLatency::total 179370553000                       # number of overall miss ticks (Tick)
system.cpu0.dcache.demandAccesses::cpu0.data            3                       # number of demand (read+write) accesses (Count)
system.cpu0.dcache.demandAccesses::switch_cpus0.data     27066229                       # number of demand (read+write) accesses (Count)
system.cpu0.dcache.demandAccesses::total     27066232                       # number of demand (read+write) accesses (Count)
system.cpu0.dcache.overallAccesses::cpu0.data            3                       # number of overall (read+write) accesses (Count)
system.cpu0.dcache.overallAccesses::switch_cpus0.data     27066489                       # number of overall (read+write) accesses (Count)
system.cpu0.dcache.overallAccesses::total     27066492                       # number of overall (read+write) accesses (Count)
system.cpu0.dcache.demandMissRate::cpu0.data            1                       # miss rate for demand accesses (Ratio)
system.cpu0.dcache.demandMissRate::switch_cpus0.data     0.086580                       # miss rate for demand accesses (Ratio)
system.cpu0.dcache.demandMissRate::total     0.086580                       # miss rate for demand accesses (Ratio)
system.cpu0.dcache.overallMissRate::cpu0.data            1                       # miss rate for overall accesses (Ratio)
system.cpu0.dcache.overallMissRate::switch_cpus0.data     0.086586                       # miss rate for overall accesses (Ratio)
system.cpu0.dcache.overallMissRate::total     0.086586                       # miss rate for overall accesses (Ratio)
system.cpu0.dcache.demandAvgMissLatency::switch_cpus0.data 76543.323635                       # average overall miss latency in ticks ((Tick/Count))
system.cpu0.dcache.demandAvgMissLatency::total 76543.225645                       # average overall miss latency in ticks ((Tick/Count))
system.cpu0.dcache.overallAvgMissLatency::switch_cpus0.data 76537.052746                       # average overall miss latency ((Tick/Count))
system.cpu0.dcache.overallAvgMissLatency::total 76536.954771                       # average overall miss latency ((Tick/Count))
system.cpu0.dcache.blockedCycles::no_mshrs       820465                       # number of cycles access was blocked (Cycle)
system.cpu0.dcache.blockedCycles::no_targets          662                       # number of cycles access was blocked (Cycle)
system.cpu0.dcache.blockedCauses::no_mshrs        10899                       # number of times access was blocked (Count)
system.cpu0.dcache.blockedCauses::no_targets            9                       # number of times access was blocked (Count)
system.cpu0.dcache.avgBlocked::no_mshrs     75.278925                       # average number of cycles each access was blocked ((Cycle/Count))
system.cpu0.dcache.avgBlocked::no_targets    73.555556                       # average number of cycles each access was blocked ((Cycle/Count))
system.cpu0.dcache.writebacks::writebacks       125528                       # number of writebacks (Count)
system.cpu0.dcache.writebacks::total           125528                       # number of writebacks (Count)
system.cpu0.dcache.demandMshrHits::switch_cpus0.data       169540                       # number of demand (read+write) MSHR hits (Count)
system.cpu0.dcache.demandMshrHits::total       169540                       # number of demand (read+write) MSHR hits (Count)
system.cpu0.dcache.overallMshrHits::switch_cpus0.data       169540                       # number of overall MSHR hits (Count)
system.cpu0.dcache.overallMshrHits::total       169540                       # number of overall MSHR hits (Count)
system.cpu0.dcache.demandMshrMisses::switch_cpus0.data      2173846                       # number of demand (read+write) MSHR misses (Count)
system.cpu0.dcache.demandMshrMisses::total      2173846                       # number of demand (read+write) MSHR misses (Count)
system.cpu0.dcache.overallMshrMisses::switch_cpus0.data      2174038                       # number of overall MSHR misses (Count)
system.cpu0.dcache.overallMshrMisses::total      2174038                       # number of overall MSHR misses (Count)
system.cpu0.dcache.overallMshrUncacheable::switch_cpus0.data         2618                       # number of overall MSHR uncacheable misses (Count)
system.cpu0.dcache.overallMshrUncacheable::total         2618                       # number of overall MSHR uncacheable misses (Count)
system.cpu0.dcache.demandMshrMissLatency::switch_cpus0.data 164579219500                       # number of demand (read+write) MSHR miss ticks (Tick)
system.cpu0.dcache.demandMshrMissLatency::total 164579219500                       # number of demand (read+write) MSHR miss ticks (Tick)
system.cpu0.dcache.overallMshrMissLatency::switch_cpus0.data 164594004000                       # number of overall MSHR miss ticks (Tick)
system.cpu0.dcache.overallMshrMissLatency::total 164594004000                       # number of overall MSHR miss ticks (Tick)
system.cpu0.dcache.overallMshrUncacheableLatency::switch_cpus0.data      1889000                       # number of overall MSHR uncacheable ticks (Tick)
system.cpu0.dcache.overallMshrUncacheableLatency::total      1889000                       # number of overall MSHR uncacheable ticks (Tick)
system.cpu0.dcache.demandMshrMissRate::switch_cpus0.data     0.080316                       # mshr miss ratio for demand accesses (Ratio)
system.cpu0.dcache.demandMshrMissRate::total     0.080316                       # mshr miss ratio for demand accesses (Ratio)
system.cpu0.dcache.overallMshrMissRate::switch_cpus0.data     0.080322                       # mshr miss ratio for overall accesses (Ratio)
system.cpu0.dcache.overallMshrMissRate::total     0.080322                       # mshr miss ratio for overall accesses (Ratio)
system.cpu0.dcache.demandAvgMshrMissLatency::switch_cpus0.data 75708.775829                       # average overall mshr miss latency ((Tick/Count))
system.cpu0.dcache.demandAvgMshrMissLatency::total 75708.775829                       # average overall mshr miss latency ((Tick/Count))
system.cpu0.dcache.overallAvgMshrMissLatency::switch_cpus0.data 75708.890093                       # average overall mshr miss latency ((Tick/Count))
system.cpu0.dcache.overallAvgMshrMissLatency::total 75708.890093                       # average overall mshr miss latency ((Tick/Count))
system.cpu0.dcache.overallAvgMshrUncacheableLatency::switch_cpus0.data   721.543163                       # average overall mshr uncacheable latency ((Tick/Count))
system.cpu0.dcache.overallAvgMshrUncacheableLatency::total   721.543163                       # average overall mshr uncacheable latency ((Tick/Count))
system.cpu0.dcache.replacements               2169637                       # number of replacements (Count)
system.cpu0.dcache.LockedRMWReadReq.hits::switch_cpus0.data        11934                       # number of LockedRMWReadReq hits (Count)
system.cpu0.dcache.LockedRMWReadReq.hits::total        11934                       # number of LockedRMWReadReq hits (Count)
system.cpu0.dcache.LockedRMWReadReq.misses::switch_cpus0.data         8581                       # number of LockedRMWReadReq misses (Count)
system.cpu0.dcache.LockedRMWReadReq.misses::total         8581                       # number of LockedRMWReadReq misses (Count)
system.cpu0.dcache.LockedRMWReadReq.missLatency::switch_cpus0.data    608925000                       # number of LockedRMWReadReq miss ticks (Tick)
system.cpu0.dcache.LockedRMWReadReq.missLatency::total    608925000                       # number of LockedRMWReadReq miss ticks (Tick)
system.cpu0.dcache.LockedRMWReadReq.accesses::switch_cpus0.data        20515                       # number of LockedRMWReadReq accesses(hits+misses) (Count)
system.cpu0.dcache.LockedRMWReadReq.accesses::total        20515                       # number of LockedRMWReadReq accesses(hits+misses) (Count)
system.cpu0.dcache.LockedRMWReadReq.missRate::switch_cpus0.data     0.418279                       # miss rate for LockedRMWReadReq accesses (Ratio)
system.cpu0.dcache.LockedRMWReadReq.missRate::total     0.418279                       # miss rate for LockedRMWReadReq accesses (Ratio)
system.cpu0.dcache.LockedRMWReadReq.avgMissLatency::switch_cpus0.data 70962.009090                       # average LockedRMWReadReq miss latency ((Tick/Count))
system.cpu0.dcache.LockedRMWReadReq.avgMissLatency::total 70962.009090                       # average LockedRMWReadReq miss latency ((Tick/Count))
system.cpu0.dcache.LockedRMWReadReq.mshrHits::switch_cpus0.data            2                       # number of LockedRMWReadReq MSHR hits (Count)
system.cpu0.dcache.LockedRMWReadReq.mshrHits::total            2                       # number of LockedRMWReadReq MSHR hits (Count)
system.cpu0.dcache.LockedRMWReadReq.mshrMisses::switch_cpus0.data         8579                       # number of LockedRMWReadReq MSHR misses (Count)
system.cpu0.dcache.LockedRMWReadReq.mshrMisses::total         8579                       # number of LockedRMWReadReq MSHR misses (Count)
system.cpu0.dcache.LockedRMWReadReq.mshrMissLatency::switch_cpus0.data   1292524501                       # number of LockedRMWReadReq MSHR miss ticks (Tick)
system.cpu0.dcache.LockedRMWReadReq.mshrMissLatency::total   1292524501                       # number of LockedRMWReadReq MSHR miss ticks (Tick)
system.cpu0.dcache.LockedRMWReadReq.mshrMissRate::switch_cpus0.data     0.418182                       # mshr miss rate for LockedRMWReadReq accesses (Ratio)
system.cpu0.dcache.LockedRMWReadReq.mshrMissRate::total     0.418182                       # mshr miss rate for LockedRMWReadReq accesses (Ratio)
system.cpu0.dcache.LockedRMWReadReq.avgMshrMissLatency::switch_cpus0.data 150661.440844                       # average LockedRMWReadReq mshr miss latency ((Tick/Count))
system.cpu0.dcache.LockedRMWReadReq.avgMshrMissLatency::total 150661.440844                       # average LockedRMWReadReq mshr miss latency ((Tick/Count))
system.cpu0.dcache.LockedRMWWriteReq.hits::switch_cpus0.data        20515                       # number of LockedRMWWriteReq hits (Count)
system.cpu0.dcache.LockedRMWWriteReq.hits::total        20515                       # number of LockedRMWWriteReq hits (Count)
system.cpu0.dcache.LockedRMWWriteReq.accesses::switch_cpus0.data        20515                       # number of LockedRMWWriteReq accesses(hits+misses) (Count)
system.cpu0.dcache.LockedRMWWriteReq.accesses::total        20515                       # number of LockedRMWWriteReq accesses(hits+misses) (Count)
system.cpu0.dcache.ReadReq.hits::switch_cpus0.data     23099462                       # number of ReadReq hits (Count)
system.cpu0.dcache.ReadReq.hits::total       23099462                       # number of ReadReq hits (Count)
system.cpu0.dcache.ReadReq.misses::cpu0.data            3                       # number of ReadReq misses (Count)
system.cpu0.dcache.ReadReq.misses::switch_cpus0.data      2285551                       # number of ReadReq misses (Count)
system.cpu0.dcache.ReadReq.misses::total      2285554                       # number of ReadReq misses (Count)
system.cpu0.dcache.ReadReq.missLatency::switch_cpus0.data 176260137000                       # number of ReadReq miss ticks (Tick)
system.cpu0.dcache.ReadReq.missLatency::total 176260137000                       # number of ReadReq miss ticks (Tick)
system.cpu0.dcache.ReadReq.accesses::cpu0.data            3                       # number of ReadReq accesses(hits+misses) (Count)
system.cpu0.dcache.ReadReq.accesses::switch_cpus0.data     25385013                       # number of ReadReq accesses(hits+misses) (Count)
system.cpu0.dcache.ReadReq.accesses::total     25385016                       # number of ReadReq accesses(hits+misses) (Count)
system.cpu0.dcache.ReadReq.missRate::cpu0.data            1                       # miss rate for ReadReq accesses (Ratio)
system.cpu0.dcache.ReadReq.missRate::switch_cpus0.data     0.090035                       # miss rate for ReadReq accesses (Ratio)
system.cpu0.dcache.ReadReq.missRate::total     0.090036                       # miss rate for ReadReq accesses (Ratio)
system.cpu0.dcache.ReadReq.avgMissLatency::switch_cpus0.data 77119.319149                       # average ReadReq miss latency ((Tick/Count))
system.cpu0.dcache.ReadReq.avgMissLatency::total 77119.217923                       # average ReadReq miss latency ((Tick/Count))
system.cpu0.dcache.ReadReq.mshrHits::switch_cpus0.data       169382                       # number of ReadReq MSHR hits (Count)
system.cpu0.dcache.ReadReq.mshrHits::total       169382                       # number of ReadReq MSHR hits (Count)
system.cpu0.dcache.ReadReq.mshrMisses::switch_cpus0.data      2116169                       # number of ReadReq MSHR misses (Count)
system.cpu0.dcache.ReadReq.mshrMisses::total      2116169                       # number of ReadReq MSHR misses (Count)
system.cpu0.dcache.ReadReq.mshrUncacheable::switch_cpus0.data           17                       # number of ReadReq MSHR uncacheable (Count)
system.cpu0.dcache.ReadReq.mshrUncacheable::total           17                       # number of ReadReq MSHR uncacheable (Count)
system.cpu0.dcache.ReadReq.mshrMissLatency::switch_cpus0.data 161534873500                       # number of ReadReq MSHR miss ticks (Tick)
system.cpu0.dcache.ReadReq.mshrMissLatency::total 161534873500                       # number of ReadReq MSHR miss ticks (Tick)
system.cpu0.dcache.ReadReq.mshrUncacheableLatency::switch_cpus0.data      1889000                       # number of ReadReq MSHR uncacheable ticks (Tick)
system.cpu0.dcache.ReadReq.mshrUncacheableLatency::total      1889000                       # number of ReadReq MSHR uncacheable ticks (Tick)
system.cpu0.dcache.ReadReq.mshrMissRate::switch_cpus0.data     0.083363                       # mshr miss rate for ReadReq accesses (Ratio)
system.cpu0.dcache.ReadReq.mshrMissRate::total     0.083363                       # mshr miss rate for ReadReq accesses (Ratio)
system.cpu0.dcache.ReadReq.avgMshrMissLatency::switch_cpus0.data 76333.635688                       # average ReadReq mshr miss latency ((Tick/Count))
system.cpu0.dcache.ReadReq.avgMshrMissLatency::total 76333.635688                       # average ReadReq mshr miss latency ((Tick/Count))
system.cpu0.dcache.ReadReq.avgMshrUncacheableLatency::switch_cpus0.data 111117.647059                       # average ReadReq mshr uncacheable latency ((Tick/Count))
system.cpu0.dcache.ReadReq.avgMshrUncacheableLatency::total 111117.647059                       # average ReadReq mshr uncacheable latency ((Tick/Count))
system.cpu0.dcache.SoftPFReq.hits::switch_cpus0.data           68                       # number of SoftPFReq hits (Count)
system.cpu0.dcache.SoftPFReq.hits::total           68                       # number of SoftPFReq hits (Count)
system.cpu0.dcache.SoftPFReq.misses::switch_cpus0.data          192                       # number of SoftPFReq misses (Count)
system.cpu0.dcache.SoftPFReq.misses::total          192                       # number of SoftPFReq misses (Count)
system.cpu0.dcache.SoftPFReq.accesses::switch_cpus0.data          260                       # number of SoftPFReq accesses(hits+misses) (Count)
system.cpu0.dcache.SoftPFReq.accesses::total          260                       # number of SoftPFReq accesses(hits+misses) (Count)
system.cpu0.dcache.SoftPFReq.missRate::switch_cpus0.data     0.738462                       # miss rate for SoftPFReq accesses (Ratio)
system.cpu0.dcache.SoftPFReq.missRate::total     0.738462                       # miss rate for SoftPFReq accesses (Ratio)
system.cpu0.dcache.SoftPFReq.mshrMisses::switch_cpus0.data          192                       # number of SoftPFReq MSHR misses (Count)
system.cpu0.dcache.SoftPFReq.mshrMisses::total          192                       # number of SoftPFReq MSHR misses (Count)
system.cpu0.dcache.SoftPFReq.mshrMissLatency::switch_cpus0.data     14784500                       # number of SoftPFReq MSHR miss ticks (Tick)
system.cpu0.dcache.SoftPFReq.mshrMissLatency::total     14784500                       # number of SoftPFReq MSHR miss ticks (Tick)
system.cpu0.dcache.SoftPFReq.mshrMissRate::switch_cpus0.data     0.738462                       # mshr miss rate for SoftPFReq accesses (Ratio)
system.cpu0.dcache.SoftPFReq.mshrMissRate::total     0.738462                       # mshr miss rate for SoftPFReq accesses (Ratio)
system.cpu0.dcache.SoftPFReq.avgMshrMissLatency::switch_cpus0.data 77002.604167                       # average SoftPFReq mshr miss latency ((Tick/Count))
system.cpu0.dcache.SoftPFReq.avgMshrMissLatency::total 77002.604167                       # average SoftPFReq mshr miss latency ((Tick/Count))
system.cpu0.dcache.WriteReq.hits::switch_cpus0.data      1623381                       # number of WriteReq hits (Count)
system.cpu0.dcache.WriteReq.hits::total       1623381                       # number of WriteReq hits (Count)
system.cpu0.dcache.WriteReq.misses::switch_cpus0.data        57835                       # number of WriteReq misses (Count)
system.cpu0.dcache.WriteReq.misses::total        57835                       # number of WriteReq misses (Count)
system.cpu0.dcache.WriteReq.missLatency::switch_cpus0.data   3110416000                       # number of WriteReq miss ticks (Tick)
system.cpu0.dcache.WriteReq.missLatency::total   3110416000                       # number of WriteReq miss ticks (Tick)
system.cpu0.dcache.WriteReq.accesses::switch_cpus0.data      1681216                       # number of WriteReq accesses(hits+misses) (Count)
system.cpu0.dcache.WriteReq.accesses::total      1681216                       # number of WriteReq accesses(hits+misses) (Count)
system.cpu0.dcache.WriteReq.missRate::switch_cpus0.data     0.034401                       # miss rate for WriteReq accesses (Ratio)
system.cpu0.dcache.WriteReq.missRate::total     0.034401                       # miss rate for WriteReq accesses (Ratio)
system.cpu0.dcache.WriteReq.avgMissLatency::switch_cpus0.data 53780.859341                       # average WriteReq miss latency ((Tick/Count))
system.cpu0.dcache.WriteReq.avgMissLatency::total 53780.859341                       # average WriteReq miss latency ((Tick/Count))
system.cpu0.dcache.WriteReq.mshrHits::switch_cpus0.data          158                       # number of WriteReq MSHR hits (Count)
system.cpu0.dcache.WriteReq.mshrHits::total          158                       # number of WriteReq MSHR hits (Count)
system.cpu0.dcache.WriteReq.mshrMisses::switch_cpus0.data        57677                       # number of WriteReq MSHR misses (Count)
system.cpu0.dcache.WriteReq.mshrMisses::total        57677                       # number of WriteReq MSHR misses (Count)
system.cpu0.dcache.WriteReq.mshrUncacheable::switch_cpus0.data         2601                       # number of WriteReq MSHR uncacheable (Count)
system.cpu0.dcache.WriteReq.mshrUncacheable::total         2601                       # number of WriteReq MSHR uncacheable (Count)
system.cpu0.dcache.WriteReq.mshrMissLatency::switch_cpus0.data   3044346000                       # number of WriteReq MSHR miss ticks (Tick)
system.cpu0.dcache.WriteReq.mshrMissLatency::total   3044346000                       # number of WriteReq MSHR miss ticks (Tick)
system.cpu0.dcache.WriteReq.mshrMissRate::switch_cpus0.data     0.034307                       # mshr miss rate for WriteReq accesses (Ratio)
system.cpu0.dcache.WriteReq.mshrMissRate::total     0.034307                       # mshr miss rate for WriteReq accesses (Ratio)
system.cpu0.dcache.WriteReq.avgMshrMissLatency::switch_cpus0.data 52782.669002                       # average WriteReq mshr miss latency ((Tick/Count))
system.cpu0.dcache.WriteReq.avgMshrMissLatency::total 52782.669002                       # average WriteReq mshr miss latency ((Tick/Count))
system.cpu0.dcache.power_state.pwrStateResidencyTicks::UNDEFINED 7256220484000                       # Cumulative time (in ticks) in various power states (Tick)
system.cpu0.dcache.tags.tagsInUse         1016.482341                       # Average ticks per tags in use ((Tick/Count))
system.cpu0.dcache.tags.totalRefs            26938008                       # Total number of references to valid blocks. (Count)
system.cpu0.dcache.tags.sampledRefs           2171597                       # Sample count of references to valid blocks. (Count)
system.cpu0.dcache.tags.avgRefs             12.404699                       # Average number of references to valid blocks. ((Count/Count))
system.cpu0.dcache.tags.warmupTick       4695629803500                       # The tick when the warmup percentage was hit. (Tick)
system.cpu0.dcache.tags.occupancies::cpu0.data     0.026529                       # Average occupied blocks per tick, per requestor ((Count/Tick))
system.cpu0.dcache.tags.occupancies::switch_cpus0.data  1016.455812                       # Average occupied blocks per tick, per requestor ((Count/Tick))
system.cpu0.dcache.tags.avgOccs::cpu0.data     0.000026                       # Average percentage of cache occupancy ((Ratio/Tick))
system.cpu0.dcache.tags.avgOccs::switch_cpus0.data     0.992633                       # Average percentage of cache occupancy ((Ratio/Tick))
system.cpu0.dcache.tags.avgOccs::total       0.992659                       # Average percentage of cache occupancy ((Ratio/Tick))
system.cpu0.dcache.tags.occupanciesTaskId::1024          687                       # Occupied blocks per task id (Count)
system.cpu0.dcache.tags.ageTaskId_1024::2           82                       # Occupied blocks per task id, per block age (Count)
system.cpu0.dcache.tags.ageTaskId_1024::3          605                       # Occupied blocks per task id, per block age (Count)
system.cpu0.dcache.tags.ratioOccsTaskId::1024     0.670898                       # Ratio of occupied blocks and all blocks, per task id (Ratio)
system.cpu0.dcache.tags.tagAccesses          56386641                       # Number of tag accesses (Count)
system.cpu0.dcache.tags.dataAccesses         56386641                       # Number of data accesses (Count)
system.cpu0.dcache.tags.power_state.pwrStateResidencyTicks::UNDEFINED 7256220484000                       # Cumulative time (in ticks) in various power states (Tick)
system.cpu0.dtb_walker_cache.demandHits::switch_cpus0.mmu.dtb.walker     12617539                       # number of demand (read+write) hits (Count)
system.cpu0.dtb_walker_cache.demandHits::total     12617539                       # number of demand (read+write) hits (Count)
system.cpu0.dtb_walker_cache.overallHits::switch_cpus0.mmu.dtb.walker     12617539                       # number of overall hits (Count)
system.cpu0.dtb_walker_cache.overallHits::total     12617539                       # number of overall hits (Count)
system.cpu0.dtb_walker_cache.demandMisses::switch_cpus0.mmu.dtb.walker     42708116                       # number of demand (read+write) misses (Count)
system.cpu0.dtb_walker_cache.demandMisses::total     42708116                       # number of demand (read+write) misses (Count)
system.cpu0.dtb_walker_cache.overallMisses::switch_cpus0.mmu.dtb.walker     42708116                       # number of overall misses (Count)
system.cpu0.dtb_walker_cache.overallMisses::total     42708116                       # number of overall misses (Count)
system.cpu0.dtb_walker_cache.demandMissLatency::switch_cpus0.mmu.dtb.walker 2499032940500                       # number of demand (read+write) miss ticks (Tick)
system.cpu0.dtb_walker_cache.demandMissLatency::total 2499032940500                       # number of demand (read+write) miss ticks (Tick)
system.cpu0.dtb_walker_cache.overallMissLatency::switch_cpus0.mmu.dtb.walker 2499032940500                       # number of overall miss ticks (Tick)
system.cpu0.dtb_walker_cache.overallMissLatency::total 2499032940500                       # number of overall miss ticks (Tick)
system.cpu0.dtb_walker_cache.demandAccesses::switch_cpus0.mmu.dtb.walker     55325655                       # number of demand (read+write) accesses (Count)
system.cpu0.dtb_walker_cache.demandAccesses::total     55325655                       # number of demand (read+write) accesses (Count)
system.cpu0.dtb_walker_cache.overallAccesses::switch_cpus0.mmu.dtb.walker     55325655                       # number of overall (read+write) accesses (Count)
system.cpu0.dtb_walker_cache.overallAccesses::total     55325655                       # number of overall (read+write) accesses (Count)
system.cpu0.dtb_walker_cache.demandMissRate::switch_cpus0.mmu.dtb.walker     0.771941                       # miss rate for demand accesses (Ratio)
system.cpu0.dtb_walker_cache.demandMissRate::total     0.771941                       # miss rate for demand accesses (Ratio)
system.cpu0.dtb_walker_cache.overallMissRate::switch_cpus0.mmu.dtb.walker     0.771941                       # miss rate for overall accesses (Ratio)
system.cpu0.dtb_walker_cache.overallMissRate::total     0.771941                       # miss rate for overall accesses (Ratio)
system.cpu0.dtb_walker_cache.demandAvgMissLatency::switch_cpus0.mmu.dtb.walker 58514.239788                       # average overall miss latency in ticks ((Tick/Count))
system.cpu0.dtb_walker_cache.demandAvgMissLatency::total 58514.239788                       # average overall miss latency in ticks ((Tick/Count))
system.cpu0.dtb_walker_cache.overallAvgMissLatency::switch_cpus0.mmu.dtb.walker 58514.239788                       # average overall miss latency ((Tick/Count))
system.cpu0.dtb_walker_cache.overallAvgMissLatency::total 58514.239788                       # average overall miss latency ((Tick/Count))
system.cpu0.dtb_walker_cache.blockedCycles::no_mshrs            0                       # number of cycles access was blocked (Cycle)
system.cpu0.dtb_walker_cache.blockedCycles::no_targets            0                       # number of cycles access was blocked (Cycle)
system.cpu0.dtb_walker_cache.blockedCauses::no_mshrs            0                       # number of times access was blocked (Count)
system.cpu0.dtb_walker_cache.blockedCauses::no_targets            0                       # number of times access was blocked (Count)
system.cpu0.dtb_walker_cache.avgBlocked::no_mshrs          nan                       # average number of cycles each access was blocked ((Cycle/Count))
system.cpu0.dtb_walker_cache.avgBlocked::no_targets          nan                       # average number of cycles each access was blocked ((Cycle/Count))
system.cpu0.dtb_walker_cache.demandMshrMisses::switch_cpus0.mmu.dtb.walker     42708116                       # number of demand (read+write) MSHR misses (Count)
system.cpu0.dtb_walker_cache.demandMshrMisses::total     42708116                       # number of demand (read+write) MSHR misses (Count)
system.cpu0.dtb_walker_cache.overallMshrMisses::switch_cpus0.mmu.dtb.walker     42708116                       # number of overall MSHR misses (Count)
system.cpu0.dtb_walker_cache.overallMshrMisses::total     42708116                       # number of overall MSHR misses (Count)
system.cpu0.dtb_walker_cache.demandMshrMissLatency::switch_cpus0.mmu.dtb.walker 2456324824500                       # number of demand (read+write) MSHR miss ticks (Tick)
system.cpu0.dtb_walker_cache.demandMshrMissLatency::total 2456324824500                       # number of demand (read+write) MSHR miss ticks (Tick)
system.cpu0.dtb_walker_cache.overallMshrMissLatency::switch_cpus0.mmu.dtb.walker 2456324824500                       # number of overall MSHR miss ticks (Tick)
system.cpu0.dtb_walker_cache.overallMshrMissLatency::total 2456324824500                       # number of overall MSHR miss ticks (Tick)
system.cpu0.dtb_walker_cache.demandMshrMissRate::switch_cpus0.mmu.dtb.walker     0.771941                       # mshr miss ratio for demand accesses (Ratio)
system.cpu0.dtb_walker_cache.demandMshrMissRate::total     0.771941                       # mshr miss ratio for demand accesses (Ratio)
system.cpu0.dtb_walker_cache.overallMshrMissRate::switch_cpus0.mmu.dtb.walker     0.771941                       # mshr miss ratio for overall accesses (Ratio)
system.cpu0.dtb_walker_cache.overallMshrMissRate::total     0.771941                       # mshr miss ratio for overall accesses (Ratio)
system.cpu0.dtb_walker_cache.demandAvgMshrMissLatency::switch_cpus0.mmu.dtb.walker 57514.239788                       # average overall mshr miss latency ((Tick/Count))
system.cpu0.dtb_walker_cache.demandAvgMshrMissLatency::total 57514.239788                       # average overall mshr miss latency ((Tick/Count))
system.cpu0.dtb_walker_cache.overallAvgMshrMissLatency::switch_cpus0.mmu.dtb.walker 57514.239788                       # average overall mshr miss latency ((Tick/Count))
system.cpu0.dtb_walker_cache.overallAvgMshrMissLatency::total 57514.239788                       # average overall mshr miss latency ((Tick/Count))
system.cpu0.dtb_walker_cache.replacements     42708071                       # number of replacements (Count)
system.cpu0.dtb_walker_cache.ReadReq.hits::switch_cpus0.mmu.dtb.walker     12617539                       # number of ReadReq hits (Count)
system.cpu0.dtb_walker_cache.ReadReq.hits::total     12617539                       # number of ReadReq hits (Count)
system.cpu0.dtb_walker_cache.ReadReq.misses::switch_cpus0.mmu.dtb.walker     42708116                       # number of ReadReq misses (Count)
system.cpu0.dtb_walker_cache.ReadReq.misses::total     42708116                       # number of ReadReq misses (Count)
system.cpu0.dtb_walker_cache.ReadReq.missLatency::switch_cpus0.mmu.dtb.walker 2499032940500                       # number of ReadReq miss ticks (Tick)
system.cpu0.dtb_walker_cache.ReadReq.missLatency::total 2499032940500                       # number of ReadReq miss ticks (Tick)
system.cpu0.dtb_walker_cache.ReadReq.accesses::switch_cpus0.mmu.dtb.walker     55325655                       # number of ReadReq accesses(hits+misses) (Count)
system.cpu0.dtb_walker_cache.ReadReq.accesses::total     55325655                       # number of ReadReq accesses(hits+misses) (Count)
system.cpu0.dtb_walker_cache.ReadReq.missRate::switch_cpus0.mmu.dtb.walker     0.771941                       # miss rate for ReadReq accesses (Ratio)
system.cpu0.dtb_walker_cache.ReadReq.missRate::total     0.771941                       # miss rate for ReadReq accesses (Ratio)
system.cpu0.dtb_walker_cache.ReadReq.avgMissLatency::switch_cpus0.mmu.dtb.walker 58514.239788                       # average ReadReq miss latency ((Tick/Count))
system.cpu0.dtb_walker_cache.ReadReq.avgMissLatency::total 58514.239788                       # average ReadReq miss latency ((Tick/Count))
system.cpu0.dtb_walker_cache.ReadReq.mshrMisses::switch_cpus0.mmu.dtb.walker     42708116                       # number of ReadReq MSHR misses (Count)
system.cpu0.dtb_walker_cache.ReadReq.mshrMisses::total     42708116                       # number of ReadReq MSHR misses (Count)
system.cpu0.dtb_walker_cache.ReadReq.mshrMissLatency::switch_cpus0.mmu.dtb.walker 2456324824500                       # number of ReadReq MSHR miss ticks (Tick)
system.cpu0.dtb_walker_cache.ReadReq.mshrMissLatency::total 2456324824500                       # number of ReadReq MSHR miss ticks (Tick)
system.cpu0.dtb_walker_cache.ReadReq.mshrMissRate::switch_cpus0.mmu.dtb.walker     0.771941                       # mshr miss rate for ReadReq accesses (Ratio)
system.cpu0.dtb_walker_cache.ReadReq.mshrMissRate::total     0.771941                       # mshr miss rate for ReadReq accesses (Ratio)
system.cpu0.dtb_walker_cache.ReadReq.avgMshrMissLatency::switch_cpus0.mmu.dtb.walker 57514.239788                       # average ReadReq mshr miss latency ((Tick/Count))
system.cpu0.dtb_walker_cache.ReadReq.avgMshrMissLatency::total 57514.239788                       # average ReadReq mshr miss latency ((Tick/Count))
system.cpu0.dtb_walker_cache.power_state.pwrStateResidencyTicks::UNDEFINED 7256220484000                       # Cumulative time (in ticks) in various power states (Tick)
system.cpu0.dtb_walker_cache.tags.tagsInUse    15.997615                       # Average ticks per tags in use ((Tick/Count))
system.cpu0.dtb_walker_cache.tags.totalRefs     55325655                       # Total number of references to valid blocks. (Count)
system.cpu0.dtb_walker_cache.tags.sampledRefs     42708116                       # Sample count of references to valid blocks. (Count)
system.cpu0.dtb_walker_cache.tags.avgRefs     1.295437                       # Average number of references to valid blocks. ((Count/Count))
system.cpu0.dtb_walker_cache.tags.warmupTick 4695630145000                       # The tick when the warmup percentage was hit. (Tick)
system.cpu0.dtb_walker_cache.tags.occupancies::switch_cpus0.mmu.dtb.walker    15.997615                       # Average occupied blocks per tick, per requestor ((Count/Tick))
system.cpu0.dtb_walker_cache.tags.avgOccs::switch_cpus0.mmu.dtb.walker     0.999851                       # Average percentage of cache occupancy ((Ratio/Tick))
system.cpu0.dtb_walker_cache.tags.avgOccs::total     0.999851                       # Average percentage of cache occupancy ((Ratio/Tick))
system.cpu0.dtb_walker_cache.tags.occupanciesTaskId::1024           16                       # Occupied blocks per task id (Count)
system.cpu0.dtb_walker_cache.tags.ageTaskId_1024::2            9                       # Occupied blocks per task id, per block age (Count)
system.cpu0.dtb_walker_cache.tags.ageTaskId_1024::3            7                       # Occupied blocks per task id, per block age (Count)
system.cpu0.dtb_walker_cache.tags.ratioOccsTaskId::1024            1                       # Ratio of occupied blocks and all blocks, per task id (Ratio)
system.cpu0.dtb_walker_cache.tags.tagAccesses    153359426                       # Number of tag accesses (Count)
system.cpu0.dtb_walker_cache.tags.dataAccesses    153359426                       # Number of data accesses (Count)
system.cpu0.dtb_walker_cache.tags.power_state.pwrStateResidencyTicks::UNDEFINED 7256220484000                       # Cumulative time (in ticks) in various power states (Tick)
system.cpu0.exec_context.thread_0.numMatAluAccesses            0                       # Number of matrix alu accesses (Count)
system.cpu0.exec_context.thread_0.numCallsReturns            1                       # Number of times a function call or return occured (Count)
system.cpu0.exec_context.thread_0.numMatInsts            0                       # Number of matrix instructions (Count)
system.cpu0.exec_context.thread_0.numIdleCycles            0                       # Number of idle cycles (Cycle)
system.cpu0.exec_context.thread_0.numBusyCycles           22                       # Number of busy cycles (Cycle)
system.cpu0.exec_context.thread_0.notIdleFraction            1                       # Percentage of non-idle cycles (Ratio)
system.cpu0.exec_context.thread_0.idleFraction            0                       # Percentage of idle cycles (Ratio)
system.cpu0.executeStats0.numInsts                  0                       # Number of executed instructions (Count)
system.cpu0.executeStats0.numNop                    0                       # Number of nop insts executed (Count)
system.cpu0.executeStats0.numBranches               0                       # Number of branches executed (Count)
system.cpu0.executeStats0.numLoadInsts              0                       # Number of load instructions executed (Count)
system.cpu0.executeStats0.numStoreInsts             3                       # Number of stores executed (Count)
system.cpu0.executeStats0.instRate                  0                       # Inst execution rate ((Count/Cycle))
system.cpu0.executeStats0.numFpRegWrites            0                       # Number of times the floating registers were written (Count)
system.cpu0.executeStats0.numIntAluAccesses           19                       # Number of integer alu accesses (Count)
system.cpu0.executeStats0.numIntRegReads           15                       # Number of times the integer registers were read (Count)
system.cpu0.executeStats0.numIntRegWrites           14                       # Number of times the integer registers were written (Count)
system.cpu0.executeStats0.numMemRefs                3                       # Number of memory refs (Count)
system.cpu0.executeStats0.numMiscRegReads           12                       # Number of times the Misc registers were read (Count)
system.cpu0.executeStats0.numVecAluAccesses            0                       # Number of vector alu accesses (Count)
system.cpu0.executeStats0.numDiscardedOps            0                       # Number of ops (including micro ops) which were discarded before commit (Count)
system.cpu0.fetchStats0.numInsts                    8                       # Number of instructions fetched (thread level) (Count)
system.cpu0.fetchStats0.numOps                     19                       # Number of ops (including micro ops) fetched (thread level) (Count)
system.cpu0.fetchStats0.fetchRate            0.363636                       # Number of inst fetches per cycle ((Count/Cycle))
system.cpu0.fetchStats0.numBranches                 4                       # Number of branches fetched (Count)
system.cpu0.fetchStats0.branchRate           0.181818                       # Number of branch fetches per cycle (Ratio)
system.cpu0.fetchStats0.numFetchSuspends            0                       # Number of times Execute suspended instruction fetching (Count)
system.cpu0.icache.demandHits::cpu0.inst            6                       # number of demand (read+write) hits (Count)
system.cpu0.icache.demandHits::switch_cpus0.inst      1614440                       # number of demand (read+write) hits (Count)
system.cpu0.icache.demandHits::total          1614446                       # number of demand (read+write) hits (Count)
system.cpu0.icache.overallHits::cpu0.inst            6                       # number of overall hits (Count)
system.cpu0.icache.overallHits::switch_cpus0.inst      1614440                       # number of overall hits (Count)
system.cpu0.icache.overallHits::total         1614446                       # number of overall hits (Count)
system.cpu0.icache.demandMisses::cpu0.inst            5                       # number of demand (read+write) misses (Count)
system.cpu0.icache.demandMisses::switch_cpus0.inst       150356                       # number of demand (read+write) misses (Count)
system.cpu0.icache.demandMisses::total         150361                       # number of demand (read+write) misses (Count)
system.cpu0.icache.overallMisses::cpu0.inst            5                       # number of overall misses (Count)
system.cpu0.icache.overallMisses::switch_cpus0.inst       150356                       # number of overall misses (Count)
system.cpu0.icache.overallMisses::total        150361                       # number of overall misses (Count)
system.cpu0.icache.demandMissLatency::switch_cpus0.inst  11329397498                       # number of demand (read+write) miss ticks (Tick)
system.cpu0.icache.demandMissLatency::total  11329397498                       # number of demand (read+write) miss ticks (Tick)
system.cpu0.icache.overallMissLatency::switch_cpus0.inst  11329397498                       # number of overall miss ticks (Tick)
system.cpu0.icache.overallMissLatency::total  11329397498                       # number of overall miss ticks (Tick)
system.cpu0.icache.demandAccesses::cpu0.inst           11                       # number of demand (read+write) accesses (Count)
system.cpu0.icache.demandAccesses::switch_cpus0.inst      1764796                       # number of demand (read+write) accesses (Count)
system.cpu0.icache.demandAccesses::total      1764807                       # number of demand (read+write) accesses (Count)
system.cpu0.icache.overallAccesses::cpu0.inst           11                       # number of overall (read+write) accesses (Count)
system.cpu0.icache.overallAccesses::switch_cpus0.inst      1764796                       # number of overall (read+write) accesses (Count)
system.cpu0.icache.overallAccesses::total      1764807                       # number of overall (read+write) accesses (Count)
system.cpu0.icache.demandMissRate::cpu0.inst     0.454545                       # miss rate for demand accesses (Ratio)
system.cpu0.icache.demandMissRate::switch_cpus0.inst     0.085197                       # miss rate for demand accesses (Ratio)
system.cpu0.icache.demandMissRate::total     0.085200                       # miss rate for demand accesses (Ratio)
system.cpu0.icache.overallMissRate::cpu0.inst     0.454545                       # miss rate for overall accesses (Ratio)
system.cpu0.icache.overallMissRate::switch_cpus0.inst     0.085197                       # miss rate for overall accesses (Ratio)
system.cpu0.icache.overallMissRate::total     0.085200                       # miss rate for overall accesses (Ratio)
system.cpu0.icache.demandAvgMissLatency::switch_cpus0.inst 75350.484836                       # average overall miss latency in ticks ((Tick/Count))
system.cpu0.icache.demandAvgMissLatency::total 75347.979183                       # average overall miss latency in ticks ((Tick/Count))
system.cpu0.icache.overallAvgMissLatency::switch_cpus0.inst 75350.484836                       # average overall miss latency ((Tick/Count))
system.cpu0.icache.overallAvgMissLatency::total 75347.979183                       # average overall miss latency ((Tick/Count))
system.cpu0.icache.blockedCycles::no_mshrs         3439                       # number of cycles access was blocked (Cycle)
system.cpu0.icache.blockedCycles::no_targets            0                       # number of cycles access was blocked (Cycle)
system.cpu0.icache.blockedCauses::no_mshrs           49                       # number of times access was blocked (Count)
system.cpu0.icache.blockedCauses::no_targets            0                       # number of times access was blocked (Count)
system.cpu0.icache.avgBlocked::no_mshrs     70.183673                       # average number of cycles each access was blocked ((Cycle/Count))
system.cpu0.icache.avgBlocked::no_targets          nan                       # average number of cycles each access was blocked ((Cycle/Count))
system.cpu0.icache.writebacks::writebacks       139444                       # number of writebacks (Count)
system.cpu0.icache.writebacks::total           139444                       # number of writebacks (Count)
system.cpu0.icache.demandMshrHits::switch_cpus0.inst        10405                       # number of demand (read+write) MSHR hits (Count)
system.cpu0.icache.demandMshrHits::total        10405                       # number of demand (read+write) MSHR hits (Count)
system.cpu0.icache.overallMshrHits::switch_cpus0.inst        10405                       # number of overall MSHR hits (Count)
system.cpu0.icache.overallMshrHits::total        10405                       # number of overall MSHR hits (Count)
system.cpu0.icache.demandMshrMisses::switch_cpus0.inst       139951                       # number of demand (read+write) MSHR misses (Count)
system.cpu0.icache.demandMshrMisses::total       139951                       # number of demand (read+write) MSHR misses (Count)
system.cpu0.icache.overallMshrMisses::switch_cpus0.inst       139951                       # number of overall MSHR misses (Count)
system.cpu0.icache.overallMshrMisses::total       139951                       # number of overall MSHR misses (Count)
system.cpu0.icache.demandMshrMissLatency::switch_cpus0.inst  10676645000                       # number of demand (read+write) MSHR miss ticks (Tick)
system.cpu0.icache.demandMshrMissLatency::total  10676645000                       # number of demand (read+write) MSHR miss ticks (Tick)
system.cpu0.icache.overallMshrMissLatency::switch_cpus0.inst  10676645000                       # number of overall MSHR miss ticks (Tick)
system.cpu0.icache.overallMshrMissLatency::total  10676645000                       # number of overall MSHR miss ticks (Tick)
system.cpu0.icache.demandMshrMissRate::switch_cpus0.inst     0.079302                       # mshr miss ratio for demand accesses (Ratio)
system.cpu0.icache.demandMshrMissRate::total     0.079301                       # mshr miss ratio for demand accesses (Ratio)
system.cpu0.icache.overallMshrMissRate::switch_cpus0.inst     0.079302                       # mshr miss ratio for overall accesses (Ratio)
system.cpu0.icache.overallMshrMissRate::total     0.079301                       # mshr miss ratio for overall accesses (Ratio)
system.cpu0.icache.demandAvgMshrMissLatency::switch_cpus0.inst 76288.450958                       # average overall mshr miss latency ((Tick/Count))
system.cpu0.icache.demandAvgMshrMissLatency::total 76288.450958                       # average overall mshr miss latency ((Tick/Count))
system.cpu0.icache.overallAvgMshrMissLatency::switch_cpus0.inst 76288.450958                       # average overall mshr miss latency ((Tick/Count))
system.cpu0.icache.overallAvgMshrMissLatency::total 76288.450958                       # average overall mshr miss latency ((Tick/Count))
system.cpu0.icache.replacements                139444                       # number of replacements (Count)
system.cpu0.icache.ReadReq.hits::cpu0.inst            6                       # number of ReadReq hits (Count)
system.cpu0.icache.ReadReq.hits::switch_cpus0.inst      1614440                       # number of ReadReq hits (Count)
system.cpu0.icache.ReadReq.hits::total        1614446                       # number of ReadReq hits (Count)
system.cpu0.icache.ReadReq.misses::cpu0.inst            5                       # number of ReadReq misses (Count)
system.cpu0.icache.ReadReq.misses::switch_cpus0.inst       150356                       # number of ReadReq misses (Count)
system.cpu0.icache.ReadReq.misses::total       150361                       # number of ReadReq misses (Count)
system.cpu0.icache.ReadReq.missLatency::switch_cpus0.inst  11329397498                       # number of ReadReq miss ticks (Tick)
system.cpu0.icache.ReadReq.missLatency::total  11329397498                       # number of ReadReq miss ticks (Tick)
system.cpu0.icache.ReadReq.accesses::cpu0.inst           11                       # number of ReadReq accesses(hits+misses) (Count)
system.cpu0.icache.ReadReq.accesses::switch_cpus0.inst      1764796                       # number of ReadReq accesses(hits+misses) (Count)
system.cpu0.icache.ReadReq.accesses::total      1764807                       # number of ReadReq accesses(hits+misses) (Count)
system.cpu0.icache.ReadReq.missRate::cpu0.inst     0.454545                       # miss rate for ReadReq accesses (Ratio)
system.cpu0.icache.ReadReq.missRate::switch_cpus0.inst     0.085197                       # miss rate for ReadReq accesses (Ratio)
system.cpu0.icache.ReadReq.missRate::total     0.085200                       # miss rate for ReadReq accesses (Ratio)
system.cpu0.icache.ReadReq.avgMissLatency::switch_cpus0.inst 75350.484836                       # average ReadReq miss latency ((Tick/Count))
system.cpu0.icache.ReadReq.avgMissLatency::total 75347.979183                       # average ReadReq miss latency ((Tick/Count))
system.cpu0.icache.ReadReq.mshrHits::switch_cpus0.inst        10405                       # number of ReadReq MSHR hits (Count)
system.cpu0.icache.ReadReq.mshrHits::total        10405                       # number of ReadReq MSHR hits (Count)
system.cpu0.icache.ReadReq.mshrMisses::switch_cpus0.inst       139951                       # number of ReadReq MSHR misses (Count)
system.cpu0.icache.ReadReq.mshrMisses::total       139951                       # number of ReadReq MSHR misses (Count)
system.cpu0.icache.ReadReq.mshrMissLatency::switch_cpus0.inst  10676645000                       # number of ReadReq MSHR miss ticks (Tick)
system.cpu0.icache.ReadReq.mshrMissLatency::total  10676645000                       # number of ReadReq MSHR miss ticks (Tick)
system.cpu0.icache.ReadReq.mshrMissRate::switch_cpus0.inst     0.079302                       # mshr miss rate for ReadReq accesses (Ratio)
system.cpu0.icache.ReadReq.mshrMissRate::total     0.079301                       # mshr miss rate for ReadReq accesses (Ratio)
system.cpu0.icache.ReadReq.avgMshrMissLatency::switch_cpus0.inst 76288.450958                       # average ReadReq mshr miss latency ((Tick/Count))
system.cpu0.icache.ReadReq.avgMshrMissLatency::total 76288.450958                       # average ReadReq mshr miss latency ((Tick/Count))
system.cpu0.icache.power_state.pwrStateResidencyTicks::UNDEFINED 7256220484000                       # Cumulative time (in ticks) in various power states (Tick)
system.cpu0.icache.tags.tagsInUse          488.236820                       # Average ticks per tags in use ((Tick/Count))
system.cpu0.icache.tags.totalRefs             1754402                       # Total number of references to valid blocks. (Count)
system.cpu0.icache.tags.sampledRefs            139956                       # Sample count of references to valid blocks. (Count)
system.cpu0.icache.tags.avgRefs             12.535383                       # Average number of references to valid blocks. ((Count/Count))
system.cpu0.icache.tags.warmupTick       4695629801500                       # The tick when the warmup percentage was hit. (Tick)
system.cpu0.icache.tags.occupancies::cpu0.inst     0.009402                       # Average occupied blocks per tick, per requestor ((Count/Tick))
system.cpu0.icache.tags.occupancies::switch_cpus0.inst   488.227418                       # Average occupied blocks per tick, per requestor ((Count/Tick))
system.cpu0.icache.tags.avgOccs::cpu0.inst     0.000018                       # Average percentage of cache occupancy ((Ratio/Tick))
system.cpu0.icache.tags.avgOccs::switch_cpus0.inst     0.953569                       # Average percentage of cache occupancy ((Ratio/Tick))
system.cpu0.icache.tags.avgOccs::total       0.953588                       # Average percentage of cache occupancy ((Ratio/Tick))
system.cpu0.icache.tags.occupanciesTaskId::1024          512                       # Occupied blocks per task id (Count)
system.cpu0.icache.tags.ageTaskId_1024::2          216                       # Occupied blocks per task id, per block age (Count)
system.cpu0.icache.tags.ageTaskId_1024::3          296                       # Occupied blocks per task id, per block age (Count)
system.cpu0.icache.tags.ratioOccsTaskId::1024            1                       # Ratio of occupied blocks and all blocks, per task id (Ratio)
system.cpu0.icache.tags.tagAccesses           3669570                       # Number of tag accesses (Count)
system.cpu0.icache.tags.dataAccesses          3669570                       # Number of data accesses (Count)
system.cpu0.icache.tags.power_state.pwrStateResidencyTicks::UNDEFINED 7256220484000                       # Cumulative time (in ticks) in various power states (Tick)
system.cpu0.interrupts.clk_domain.clock          8000                       # Clock period in ticks (Tick)
system.cpu0.itb_walker_cache.demandHits::switch_cpus0.mmu.itb.walker         1386                       # number of demand (read+write) hits (Count)
system.cpu0.itb_walker_cache.demandHits::total         1386                       # number of demand (read+write) hits (Count)
system.cpu0.itb_walker_cache.overallHits::switch_cpus0.mmu.itb.walker         1386                       # number of overall hits (Count)
system.cpu0.itb_walker_cache.overallHits::total         1386                       # number of overall hits (Count)
system.cpu0.itb_walker_cache.demandMisses::switch_cpus0.mmu.itb.walker          341                       # number of demand (read+write) misses (Count)
system.cpu0.itb_walker_cache.demandMisses::total          341                       # number of demand (read+write) misses (Count)
system.cpu0.itb_walker_cache.overallMisses::switch_cpus0.mmu.itb.walker          341                       # number of overall misses (Count)
system.cpu0.itb_walker_cache.overallMisses::total          341                       # number of overall misses (Count)
system.cpu0.itb_walker_cache.demandMissLatency::switch_cpus0.mmu.itb.walker     27553500                       # number of demand (read+write) miss ticks (Tick)
system.cpu0.itb_walker_cache.demandMissLatency::total     27553500                       # number of demand (read+write) miss ticks (Tick)
system.cpu0.itb_walker_cache.overallMissLatency::switch_cpus0.mmu.itb.walker     27553500                       # number of overall miss ticks (Tick)
system.cpu0.itb_walker_cache.overallMissLatency::total     27553500                       # number of overall miss ticks (Tick)
system.cpu0.itb_walker_cache.demandAccesses::switch_cpus0.mmu.itb.walker         1727                       # number of demand (read+write) accesses (Count)
system.cpu0.itb_walker_cache.demandAccesses::total         1727                       # number of demand (read+write) accesses (Count)
system.cpu0.itb_walker_cache.overallAccesses::switch_cpus0.mmu.itb.walker         1727                       # number of overall (read+write) accesses (Count)
system.cpu0.itb_walker_cache.overallAccesses::total         1727                       # number of overall (read+write) accesses (Count)
system.cpu0.itb_walker_cache.demandMissRate::switch_cpus0.mmu.itb.walker     0.197452                       # miss rate for demand accesses (Ratio)
system.cpu0.itb_walker_cache.demandMissRate::total     0.197452                       # miss rate for demand accesses (Ratio)
system.cpu0.itb_walker_cache.overallMissRate::switch_cpus0.mmu.itb.walker     0.197452                       # miss rate for overall accesses (Ratio)
system.cpu0.itb_walker_cache.overallMissRate::total     0.197452                       # miss rate for overall accesses (Ratio)
system.cpu0.itb_walker_cache.demandAvgMissLatency::switch_cpus0.mmu.itb.walker 80802.052786                       # average overall miss latency in ticks ((Tick/Count))
system.cpu0.itb_walker_cache.demandAvgMissLatency::total 80802.052786                       # average overall miss latency in ticks ((Tick/Count))
system.cpu0.itb_walker_cache.overallAvgMissLatency::switch_cpus0.mmu.itb.walker 80802.052786                       # average overall miss latency ((Tick/Count))
system.cpu0.itb_walker_cache.overallAvgMissLatency::total 80802.052786                       # average overall miss latency ((Tick/Count))
system.cpu0.itb_walker_cache.blockedCycles::no_mshrs            0                       # number of cycles access was blocked (Cycle)
system.cpu0.itb_walker_cache.blockedCycles::no_targets            0                       # number of cycles access was blocked (Cycle)
system.cpu0.itb_walker_cache.blockedCauses::no_mshrs            0                       # number of times access was blocked (Count)
system.cpu0.itb_walker_cache.blockedCauses::no_targets            0                       # number of times access was blocked (Count)
system.cpu0.itb_walker_cache.avgBlocked::no_mshrs          nan                       # average number of cycles each access was blocked ((Cycle/Count))
system.cpu0.itb_walker_cache.avgBlocked::no_targets          nan                       # average number of cycles each access was blocked ((Cycle/Count))
system.cpu0.itb_walker_cache.demandMshrMisses::switch_cpus0.mmu.itb.walker          341                       # number of demand (read+write) MSHR misses (Count)
system.cpu0.itb_walker_cache.demandMshrMisses::total          341                       # number of demand (read+write) MSHR misses (Count)
system.cpu0.itb_walker_cache.overallMshrMisses::switch_cpus0.mmu.itb.walker          341                       # number of overall MSHR misses (Count)
system.cpu0.itb_walker_cache.overallMshrMisses::total          341                       # number of overall MSHR misses (Count)
system.cpu0.itb_walker_cache.demandMshrMissLatency::switch_cpus0.mmu.itb.walker     27212500                       # number of demand (read+write) MSHR miss ticks (Tick)
system.cpu0.itb_walker_cache.demandMshrMissLatency::total     27212500                       # number of demand (read+write) MSHR miss ticks (Tick)
system.cpu0.itb_walker_cache.overallMshrMissLatency::switch_cpus0.mmu.itb.walker     27212500                       # number of overall MSHR miss ticks (Tick)
system.cpu0.itb_walker_cache.overallMshrMissLatency::total     27212500                       # number of overall MSHR miss ticks (Tick)
system.cpu0.itb_walker_cache.demandMshrMissRate::switch_cpus0.mmu.itb.walker     0.197452                       # mshr miss ratio for demand accesses (Ratio)
system.cpu0.itb_walker_cache.demandMshrMissRate::total     0.197452                       # mshr miss ratio for demand accesses (Ratio)
system.cpu0.itb_walker_cache.overallMshrMissRate::switch_cpus0.mmu.itb.walker     0.197452                       # mshr miss ratio for overall accesses (Ratio)
system.cpu0.itb_walker_cache.overallMshrMissRate::total     0.197452                       # mshr miss ratio for overall accesses (Ratio)
system.cpu0.itb_walker_cache.demandAvgMshrMissLatency::switch_cpus0.mmu.itb.walker 79802.052786                       # average overall mshr miss latency ((Tick/Count))
system.cpu0.itb_walker_cache.demandAvgMshrMissLatency::total 79802.052786                       # average overall mshr miss latency ((Tick/Count))
system.cpu0.itb_walker_cache.overallAvgMshrMissLatency::switch_cpus0.mmu.itb.walker 79802.052786                       # average overall mshr miss latency ((Tick/Count))
system.cpu0.itb_walker_cache.overallAvgMshrMissLatency::total 79802.052786                       # average overall mshr miss latency ((Tick/Count))
system.cpu0.itb_walker_cache.replacements          316                       # number of replacements (Count)
system.cpu0.itb_walker_cache.ReadReq.hits::switch_cpus0.mmu.itb.walker         1386                       # number of ReadReq hits (Count)
system.cpu0.itb_walker_cache.ReadReq.hits::total         1386                       # number of ReadReq hits (Count)
system.cpu0.itb_walker_cache.ReadReq.misses::switch_cpus0.mmu.itb.walker          341                       # number of ReadReq misses (Count)
system.cpu0.itb_walker_cache.ReadReq.misses::total          341                       # number of ReadReq misses (Count)
system.cpu0.itb_walker_cache.ReadReq.missLatency::switch_cpus0.mmu.itb.walker     27553500                       # number of ReadReq miss ticks (Tick)
system.cpu0.itb_walker_cache.ReadReq.missLatency::total     27553500                       # number of ReadReq miss ticks (Tick)
system.cpu0.itb_walker_cache.ReadReq.accesses::switch_cpus0.mmu.itb.walker         1727                       # number of ReadReq accesses(hits+misses) (Count)
system.cpu0.itb_walker_cache.ReadReq.accesses::total         1727                       # number of ReadReq accesses(hits+misses) (Count)
system.cpu0.itb_walker_cache.ReadReq.missRate::switch_cpus0.mmu.itb.walker     0.197452                       # miss rate for ReadReq accesses (Ratio)
system.cpu0.itb_walker_cache.ReadReq.missRate::total     0.197452                       # miss rate for ReadReq accesses (Ratio)
system.cpu0.itb_walker_cache.ReadReq.avgMissLatency::switch_cpus0.mmu.itb.walker 80802.052786                       # average ReadReq miss latency ((Tick/Count))
system.cpu0.itb_walker_cache.ReadReq.avgMissLatency::total 80802.052786                       # average ReadReq miss latency ((Tick/Count))
system.cpu0.itb_walker_cache.ReadReq.mshrMisses::switch_cpus0.mmu.itb.walker          341                       # number of ReadReq MSHR misses (Count)
system.cpu0.itb_walker_cache.ReadReq.mshrMisses::total          341                       # number of ReadReq MSHR misses (Count)
system.cpu0.itb_walker_cache.ReadReq.mshrMissLatency::switch_cpus0.mmu.itb.walker     27212500                       # number of ReadReq MSHR miss ticks (Tick)
system.cpu0.itb_walker_cache.ReadReq.mshrMissLatency::total     27212500                       # number of ReadReq MSHR miss ticks (Tick)
system.cpu0.itb_walker_cache.ReadReq.mshrMissRate::switch_cpus0.mmu.itb.walker     0.197452                       # mshr miss rate for ReadReq accesses (Ratio)
system.cpu0.itb_walker_cache.ReadReq.mshrMissRate::total     0.197452                       # mshr miss rate for ReadReq accesses (Ratio)
system.cpu0.itb_walker_cache.ReadReq.avgMshrMissLatency::switch_cpus0.mmu.itb.walker 79802.052786                       # average ReadReq mshr miss latency ((Tick/Count))
system.cpu0.itb_walker_cache.ReadReq.avgMshrMissLatency::total 79802.052786                       # average ReadReq mshr miss latency ((Tick/Count))
system.cpu0.itb_walker_cache.power_state.pwrStateResidencyTicks::UNDEFINED 7256220484000                       # Cumulative time (in ticks) in various power states (Tick)
system.cpu0.itb_walker_cache.tags.tagsInUse     9.957669                       # Average ticks per tags in use ((Tick/Count))
system.cpu0.itb_walker_cache.tags.totalRefs         1727                       # Total number of references to valid blocks. (Count)
system.cpu0.itb_walker_cache.tags.sampledRefs          341                       # Sample count of references to valid blocks. (Count)
system.cpu0.itb_walker_cache.tags.avgRefs     5.064516                       # Average number of references to valid blocks. ((Count/Count))
system.cpu0.itb_walker_cache.tags.warmupTick 4695629889000                       # The tick when the warmup percentage was hit. (Tick)
system.cpu0.itb_walker_cache.tags.occupancies::switch_cpus0.mmu.itb.walker     9.957669                       # Average occupied blocks per tick, per requestor ((Count/Tick))
system.cpu0.itb_walker_cache.tags.avgOccs::switch_cpus0.mmu.itb.walker     0.622354                       # Average percentage of cache occupancy ((Ratio/Tick))
system.cpu0.itb_walker_cache.tags.avgOccs::total     0.622354                       # Average percentage of cache occupancy ((Ratio/Tick))
system.cpu0.itb_walker_cache.tags.occupanciesTaskId::1024           15                       # Occupied blocks per task id (Count)
system.cpu0.itb_walker_cache.tags.ageTaskId_1024::3           15                       # Occupied blocks per task id, per block age (Count)
[...]
system.switch_cpus3.fetch.nisnDist::stdev     0.504442                       # Number of instructions fetched each cycle (Total) (Count)
system.switch_cpus3.fetch.nisnDist::underflows            0      0.00%      0.00% # Number of instructions fetched each cycle (Total) (Count)
system.switch_cpus3.fetch.nisnDist::0      4976687912     99.36%     99.36% # Number of instructions fetched each cycle (Total) (Count)
system.switch_cpus3.fetch.nisnDist::1         3672282      0.07%     99.44% # Number of instructions fetched each cycle (Total) (Count)
system.switch_cpus3.fetch.nisnDist::2          215312      0.00%     99.44% # Number of instructions fetched each cycle (Total) (Count)
system.switch_cpus3.fetch.nisnDist::3         3409185      0.07%     99.51% # Number of instructions fetched each cycle (Total) (Count)
system.switch_cpus3.fetch.nisnDist::4         2878436      0.06%     99.57% # Number of instructions fetched each cycle (Total) (Count)
system.switch_cpus3.fetch.nisnDist::5         3386907      0.07%     99.63% # Number of instructions fetched each cycle (Total) (Count)
system.switch_cpus3.fetch.nisnDist::6          300436      0.01%     99.64% # Number of instructions fetched each cycle (Total) (Count)
system.switch_cpus3.fetch.nisnDist::7         3216840      0.06%     99.70% # Number of instructions fetched each cycle (Total) (Count)
system.switch_cpus3.fetch.nisnDist::8        14796440      0.30%    100.00% # Number of instructions fetched each cycle (Total) (Count)
system.switch_cpus3.fetch.nisnDist::overflows            0      0.00%    100.00% # Number of instructions fetched each cycle (Total) (Count)
system.switch_cpus3.fetch.nisnDist::min_value            0                       # Number of instructions fetched each cycle (Total) (Count)
system.switch_cpus3.fetch.nisnDist::max_value            8                       # Number of instructions fetched each cycle (Total) (Count)
system.switch_cpus3.fetch.nisnDist::total   5008563750                       # Number of instructions fetched each cycle (Total) (Count)
system.switch_cpus3.fetchStats0.numInsts     85472002                       # Number of instructions fetched (thread level) (Count)
system.switch_cpus3.fetchStats0.numOps              0                       # Number of ops (including micro ops) fetched (thread level) (Count)
system.switch_cpus3.fetchStats0.fetchRate     0.017037                       # Number of inst fetches per cycle ((Count/Cycle))
system.switch_cpus3.fetchStats0.numBranches     12016820                       # Number of branches fetched (Count)
system.switch_cpus3.fetchStats0.branchRate     0.002395                       # Number of branch fetches per cycle (Ratio)
system.switch_cpus3.fetchStats0.icacheStallCycles      8166499                       # ICache total stall cycles (Cycle)
system.switch_cpus3.fetchStats0.numFetchSuspends            0                       # Number of times Execute suspended instruction fetching (Count)
system.switch_cpus3.iew.idleCycles                  0                       # Number of cycles IEW is idle (Cycle)
system.switch_cpus3.iew.squashCycles            73857                       # Number of cycles IEW is squashing (Cycle)
system.switch_cpus3.iew.blockCycles          45407982                       # Number of cycles IEW is blocking (Cycle)
system.switch_cpus3.iew.unblockCycles          451665                       # Number of cycles IEW is unblocking (Cycle)
system.switch_cpus3.iew.dispatchedInsts     182649821                       # Number of instructions dispatched to IQ (Count)
system.switch_cpus3.iew.dispSquashedInsts        30230                       # Number of squashed instructions skipped by dispatch (Count)
system.switch_cpus3.iew.dispLoadInsts        26292164                       # Number of dispatched load instructions (Count)
system.switch_cpus3.iew.dispStoreInsts        1111806                       # Number of dispatched store instructions (Count)
system.switch_cpus3.iew.dispNonSpecInsts        91060                       # Number of dispatched non-speculative instructions (Count)
system.switch_cpus3.iew.iqFullEvents            61487                       # Number of times the IQ has become full, causing a stall (Count)
system.switch_cpus3.iew.lsqFullEvents          287152                       # Number of times the LSQ has become full, causing a stall (Count)
system.switch_cpus3.iew.memOrderViolationEvents         5095                       # Number of memory order violations (Count)
system.switch_cpus3.iew.predictedTakenIncorrect        45503                       # Number of branches that were predicted taken incorrectly (Count)
system.switch_cpus3.iew.predictedNotTakenIncorrect        19469                       # Number of branches that were predicted not taken incorrectly (Count)
system.switch_cpus3.iew.branchMispredicts        64972                       # Number of branch mispredicts detected at execute (Count)
system.switch_cpus3.iew.instsToCommit       182103890                       # Cumulative count of insts sent to commit (Count)
system.switch_cpus3.iew.writebackCount      182089413                       # Cumulative count of insts written-back (Count)
system.switch_cpus3.iew.producerInst        124257299                       # Number of instructions producing a value (Count)
system.switch_cpus3.iew.consumerInst        179283970                       # Number of instructions consuming a value (Count)
system.switch_cpus3.iew.wbRate               0.036296                       # Insts written-back per cycle ((Count/Cycle))
system.switch_cpus3.iew.wbFanout             0.693075                       # Average fanout of values written-back ((Count/Count))
system.switch_cpus3.lsq0.forwLoads             273957                       # Number of loads that had data forwarded from stores (Count)
system.switch_cpus3.lsq0.squashedLoads         225493                       # Number of loads squashed (Count)
system.switch_cpus3.lsq0.ignoredResponses          204                       # Number of memory responses ignored because the instruction is squashed (Count)
system.switch_cpus3.lsq0.memOrderViolation         5095                       # Number of memory ordering violations (Count)
system.switch_cpus3.lsq0.squashedStores         46562                       # Number of stores squashed (Count)
system.switch_cpus3.lsq0.rescheduledLoads          109                       # Number of loads that were rescheduled (Count)
system.switch_cpus3.lsq0.blockedByCache         16187                       # Number of times an access to memory failed due to the cache being blocked (Count)
system.switch_cpus3.lsq0.loadToUse::samples     26066595                       # Distribution of cycle latency between the first time a load is issued and its completion (Unspecified)
system.switch_cpus3.lsq0.loadToUse::mean  3662.398499                       # Distribution of cycle latency between the first time a load is issued and its completion (Unspecified)
system.switch_cpus3.lsq0.loadToUse::stdev  3576.164447                       # Distribution of cycle latency between the first time a load is issued and its completion (Unspecified)
system.switch_cpus3.lsq0.loadToUse::0-9      11908433     45.68%     45.68% # Distribution of cycle latency between the first time a load is issued and its completion (Unspecified)
system.switch_cpus3.lsq0.loadToUse::10-19        18389      0.07%     45.76% # Distribution of cycle latency between the first time a load is issued and its completion (Unspecified)
system.switch_cpus3.lsq0.loadToUse::20-29        10360      0.04%     45.79% # Distribution of cycle latency between the first time a load is issued and its completion (Unspecified)
system.switch_cpus3.lsq0.loadToUse::30-39         7110      0.03%     45.82% # Distribution of cycle latency between the first time a load is issued and its completion (Unspecified)
system.switch_cpus3.lsq0.loadToUse::40-49        10528      0.04%     45.86% # Distribution of cycle latency between the first time a load is issued and its completion (Unspecified)
system.switch_cpus3.lsq0.loadToUse::50-59         3534      0.01%     45.88% # Distribution of cycle latency between the first time a load is issued and its completion (Unspecified)
system.switch_cpus3.lsq0.loadToUse::60-69         1365      0.01%     45.88% # Distribution of cycle latency between the first time a load is issued and its completion (Unspecified)
system.switch_cpus3.lsq0.loadToUse::70-79         7096      0.03%     45.91% # Distribution of cycle latency between the first time a load is issued and its completion (Unspecified)
system.switch_cpus3.lsq0.loadToUse::80-89         5351      0.02%     45.93% # Distribution of cycle latency between the first time a load is issued and its completion (Unspecified)
system.switch_cpus3.lsq0.loadToUse::90-99         4145      0.02%     45.95% # Distribution of cycle latency between the first time a load is issued and its completion (Unspecified)
system.switch_cpus3.lsq0.loadToUse::100-109        31300      0.12%     46.07% # Distribution of cycle latency between the first time a load is issued and its completion (Unspecified)
system.switch_cpus3.lsq0.loadToUse::110-119        33570      0.13%     46.19% # Distribution of cycle latency between the first time a load is issued and its completion (Unspecified)
system.switch_cpus3.lsq0.loadToUse::120-129        26394      0.10%     46.30% # Distribution of cycle latency between the first time a load is issued and its completion (Unspecified)
system.switch_cpus3.lsq0.loadToUse::130-139        38631      0.15%     46.44% # Distribution of cycle latency between the first time a load is issued and its completion (Unspecified)
system.switch_cpus3.lsq0.loadToUse::140-149        27375      0.11%     46.55% # Distribution of cycle latency between the first time a load is issued and its completion (Unspecified)
system.switch_cpus3.lsq0.loadToUse::150-159        41173      0.16%     46.71% # Distribution of cycle latency between the first time a load is issued and its completion (Unspecified)
system.switch_cpus3.lsq0.loadToUse::160-169       106507      0.41%     47.11% # Distribution of cycle latency between the first time a load is issued and its completion (Unspecified)
system.switch_cpus3.lsq0.loadToUse::170-179        56927      0.22%     47.33% # Distribution of cycle latency between the first time a load is issued and its completion (Unspecified)
system.switch_cpus3.lsq0.loadToUse::180-189        28315      0.11%     47.44% # Distribution of cycle latency between the first time a load is issued and its completion (Unspecified)
system.switch_cpus3.lsq0.loadToUse::190-199        16823      0.06%     47.51% # Distribution of cycle latency between the first time a load is issued and its completion (Unspecified)
system.switch_cpus3.lsq0.loadToUse::200-209        10515      0.04%     47.55% # Distribution of cycle latency between the first time a load is issued and its completion (Unspecified)
system.switch_cpus3.lsq0.loadToUse::210-219         8394      0.03%     47.58% # Distribution of cycle latency between the first time a load is issued and its completion (Unspecified)
system.switch_cpus3.lsq0.loadToUse::220-229         6594      0.03%     47.60% # Distribution of cycle latency between the first time a load is issued and its completion (Unspecified)
system.switch_cpus3.lsq0.loadToUse::230-239         5495      0.02%     47.63% # Distribution of cycle latency between the first time a load is issued and its completion (Unspecified)
system.switch_cpus3.lsq0.loadToUse::240-249         4362      0.02%     47.64% # Distribution of cycle latency between the first time a load is issued and its completion (Unspecified)
system.switch_cpus3.lsq0.loadToUse::250-259         5813      0.02%     47.66% # Distribution of cycle latency between the first time a load is issued and its completion (Unspecified)
system.switch_cpus3.lsq0.loadToUse::260-269         4047      0.02%     47.68% # Distribution of cycle latency between the first time a load is issued and its completion (Unspecified)
system.switch_cpus3.lsq0.loadToUse::270-279         5147      0.02%     47.70% # Distribution of cycle latency between the first time a load is issued and its completion (Unspecified)
system.switch_cpus3.lsq0.loadToUse::280-289         4347      0.02%     47.72% # Distribution of cycle latency between the first time a load is issued and its completion (Unspecified)
system.switch_cpus3.lsq0.loadToUse::290-299         1479      0.01%     47.72% # Distribution of cycle latency between the first time a load is issued and its completion (Unspecified)
system.switch_cpus3.lsq0.loadToUse::overflows     13627076     52.28%    100.00% # Distribution of cycle latency between the first time a load is issued and its completion (Unspecified)
system.switch_cpus3.lsq0.loadToUse::min_value            2                       # Distribution of cycle latency between the first time a load is issued and its completion (Unspecified)
system.switch_cpus3.lsq0.loadToUse::max_value        12425                       # Distribution of cycle latency between the first time a load is issued and its completion (Unspecified)
system.switch_cpus3.lsq0.loadToUse::total     26066595                       # Distribution of cycle latency between the first time a load is issued and its completion (Unspecified)
system.switch_cpus3.mmu.dtb.rdAccesses       39905175                       # TLB accesses on read requests (Count)
system.switch_cpus3.mmu.dtb.wrAccesses        1226025                       # TLB accesses on write requests (Count)
system.switch_cpus3.mmu.dtb.rdMisses         13701333                       # TLB misses on read requests (Count)
system.switch_cpus3.mmu.dtb.wrMisses           130010                       # TLB misses on write requests (Count)
system.switch_cpus3.mmu.dtb.walker.power_state.pwrStateResidencyTicks::UNDEFINED 7256220484000                       # Cumulative time (in ticks) in various power states (Tick)
system.switch_cpus3.mmu.itb.rdAccesses              0                       # TLB accesses on read requests (Count)
system.switch_cpus3.mmu.itb.wrAccesses        1482319                       # TLB accesses on write requests (Count)
system.switch_cpus3.mmu.itb.rdMisses                0                       # TLB misses on read requests (Count)
system.switch_cpus3.mmu.itb.wrMisses              398                       # TLB misses on write requests (Count)
system.switch_cpus3.mmu.itb.walker.power_state.pwrStateResidencyTicks::UNDEFINED 7256220484000                       # Cumulative time (in ticks) in various power states (Tick)
system.switch_cpus3.power_state.numTransitions          157                       # Number of power state transitions (Count)
system.switch_cpus3.power_state.ticksClkGated::samples           79                       # Distribution of time spent in the clock gated state (Tick)
system.switch_cpus3.power_state.ticksClkGated::mean 660978493.696203                       # Distribution of time spent in the clock gated state (Tick)
system.switch_cpus3.power_state.ticksClkGated::stdev 376117674.831393                       # Distribution of time spent in the clock gated state (Tick)
system.switch_cpus3.power_state.ticksClkGated::1000-5e+10           79    100.00%    100.00% # Distribution of time spent in the clock gated state (Tick)
system.switch_cpus3.power_state.ticksClkGated::min_value     22896000                       # Distribution of time spent in the clock gated state (Tick)
system.switch_cpus3.power_state.ticksClkGated::max_value    997520000                       # Distribution of time spent in the clock gated state (Tick)
system.switch_cpus3.power_state.ticksClkGated::total           79                       # Distribution of time spent in the clock gated state (Tick)
system.switch_cpus3.power_state.pwrStateResidencyTicks::ON 2508368906498                       # Cumulative time (in ticks) in various power states (Tick)
system.switch_cpus3.power_state.pwrStateResidencyTicks::CLK_GATED  52217301002                       # Cumulative time (in ticks) in various power states (Tick)
system.switch_cpus3.power_state.pwrStateResidencyTicks::OFF      4475500                       # Cumulative time (in ticks) in various power states (Tick)
system.switch_cpus3.rename.squashCycles         73857                       # Number of cycles rename is squashing (Cycle)
system.switch_cpus3.rename.idleCycles        32966120                       # Number of cycles rename is idle (Cycle)
system.switch_cpus3.rename.blockCycles     4903552020                       # Number of cycles rename is blocking (Cycle)
system.switch_cpus3.rename.serializeStallCycles     20896686                       # count of cycles rename stalled for serializing inst (Cycle)
system.switch_cpus3.rename.runCycles         14591681                       # Number of cycles rename is running (Cycle)
system.switch_cpus3.rename.unblockCycles     36483378                       # Number of cycles rename is unblocking (Cycle)
system.switch_cpus3.rename.renamedInsts     182793989                       # Number of instructions processed by rename (Count)
system.switch_cpus3.rename.ROBFullEvents     13953315                       # Number of times rename has blocked due to ROB full (Count)
system.switch_cpus3.rename.IQFullEvents      13503070                       # Number of times rename has blocked due to IQ full (Count)
system.switch_cpus3.rename.LQFullEvents        711305                       # Number of times rename has blocked due to LQ full (Count)
system.switch_cpus3.rename.SQFullEvents       1979086                       # Number of times rename has blocked due to SQ full (Count)
system.switch_cpus3.rename.renamedOperands    312926509                       # Number of destination operands rename has renamed (Count)
system.switch_cpus3.rename.lookups          550020357                       # Number of register rename lookups that rename has made (Count)
system.switch_cpus3.rename.intLookups       116948137                       # Number of integer rename lookups (Count)
system.switch_cpus3.rename.fpLookups        152712914                       # Number of floating rename lookups (Count)
system.switch_cpus3.rename.committedMaps    310635400                       # Number of HB maps that are committed (Count)
system.switch_cpus3.rename.undoneMaps         2291109                       # Number of HB maps that are undone due to squashing (Count)
system.switch_cpus3.rename.serializing         100456                       # count of serializing insts renamed (Count)
system.switch_cpus3.rename.tempSerializing        95279                       # count of temporary serializing insts renamed (Count)
system.switch_cpus3.rename.skidInsts        104042686                       # count of insts added to the skid buffer (Count)
system.switch_cpus3.rob.reads              5174424855                       # The number of ROB reads (Count)
system.switch_cpus3.rob.writes              365146254                       # The number of ROB writes (Count)
system.switch_cpus3.thread_0.numInsts        83873483                       # Number of Instructions committed (Count)
system.switch_cpus3.thread_0.numOps         181360748                       # Number of Ops committed (Count)
system.switch_cpus3.thread_0.numMemRefs             0                       # Number of Memory References (Count)
system.voltage_domain.voltage                       1                       # Voltage in Volts (Volt)
system.workload.inst.arm                            0                       # number of arm instructions executed (Count)
system.workload.inst.quiesce                        0                       # number of quiesce instructions executed (Count)

---------- End Simulation Statistics   ----------
