
---------- Begin Simulation Statistics ----------
simSeconds                                  12.516034                       # Number of seconds simulated (Second)
simTicks                                 12516034446000                       # Number of ticks simulated (Tick)
finalTick                                18602797374000                       # Number of ticks from beginning of simulation (restored from checkpoints and never reset) (Tick)
simFreq                                  1000000000000                       # The number of ticks per simulated second ((Tick/Second))
hostSeconds                                   6447.49                       # Real time elapsed on the host (Second)
hostTickRate                               1941226438                       # The number of ticks simulated per host second (ticks/s) ((Tick/Second))
hostMemory                                    1167156                       # Number of bytes of host memory used (Byte)
simInsts                                    338580009                       # Number of instructions simulated (Count)
simOps                                      759728136                       # Number of ops (including micro ops) simulated (Count)
hostInstRate                                    52513                       # Simulator instruction rate (inst/s) ((Count/Second))
hostOpRate                                     117833                       # Simulator op (including micro ops) rate (op/s) ((Count/Second))
system.apicbridge.power_state.pwrStateResidencyTicks::UNDEFINED 18602797374000                       # Cumulative time (in ticks) in various power states (Tick)
system.bridge.power_state.pwrStateResidencyTicks::UNDEFINED 18602797374000                       # Cumulative time (in ticks) in various power states (Tick)
system.clk_domain.clock                          1000                       # Clock period in ticks (Tick)
system.cpu.numCycles                               21                       # Number of cpu cycles simulated (Cycle)
system.cpu.cpi                               2.625000                       # CPI: cycles per instruction (core level) ((Cycle/Count))
system.cpu.ipc                               0.380952                       # IPC: instructions per cycle (core level) ((Count/Cycle))
system.cpu.numWorkItemsStarted                      0                       # Number of work items this cpu started (Count)
system.cpu.numWorkItemsCompleted                    0                       # Number of work items this cpu completed (Count)
system.cpu.commitStats0.numInsts                    8                       # Number of instructions committed (thread level) (Count)
system.cpu.commitStats0.numOps                     18                       # Number of ops (including micro ops) committed (thread level) (Count)
system.cpu.commitStats0.numInstsNotNOP              0                       # Number of instructions committed excluding NOPs or prefetches (Count)
system.cpu.commitStats0.numOpsNotNOP                0                       # Number of Ops (including micro ops) Simulated (Count)
system.cpu.commitStats0.cpi                  2.625000                       # CPI: cycles per instruction (thread level) ((Cycle/Count))
system.cpu.commitStats0.ipc                  0.380952                       # IPC: instructions per cycle (thread level) ((Count/Cycle))
system.cpu.commitStats0.numMemRefs                  0                       # Number of memory references committed (Count)
system.cpu.commitStats0.numFpInsts                  0                       # Number of float instructions (Count)
system.cpu.commitStats0.numIntInsts                18                       # Number of integer instructions (Count)
system.cpu.commitStats0.numLoadInsts                5                       # Number of load instructions (Count)
system.cpu.commitStats0.numStoreInsts               0                       # Number of store instructions (Count)
system.cpu.commitStats0.numVecInsts                 0                       # Number of vector instructions (Count)
system.cpu.commitStats0.committedInstType::No_OpClass            0      0.00%      0.00% # Class of committed instruction. (Count)
system.cpu.commitStats0.committedInstType::IntAlu           13     72.22%     72.22% # Class of committed instruction. (Count)
system.cpu.commitStats0.committedInstType::IntMult            0      0.00%     72.22% # Class of committed instruction. (Count)
system.cpu.commitStats0.committedInstType::ZeroMult            0      0.00%     72.22% # Class of committed instruction. (Count)
system.cpu.commitStats0.committedInstType::IntDiv            0      0.00%     72.22% # Class of committed instruction. (Count)
system.cpu.commitStats0.committedInstType::FloatAdd            0      0.00%     72.22% # Class of committed instruction. (Count)
system.cpu.commitStats0.committedInstType::FloatCmp            0      0.00%     72.22% # Class of committed instruction. (Count)
system.cpu.commitStats0.committedInstType::FloatCvt            0      0.00%     72.22% # Class of committed instruction. (Count)
system.cpu.commitStats0.committedInstType::FloatMult            0      0.00%     72.22% # Class of committed instruction. (Count)
system.cpu.commitStats0.committedInstType::FloatMultAcc            0      0.00%     72.22% # Class of committed instruction. (Count)
system.cpu.commitStats0.committedInstType::FloatDiv            0      0.00%     72.22% # Class of committed instruction. (Count)
system.cpu.commitStats0.committedInstType::FloatMisc            0      0.00%     72.22% # Class of committed instruction. (Count)
system.cpu.commitStats0.committedInstType::FloatSqrt            0      0.00%     72.22% # Class of committed instruction. (Count)
system.cpu.commitStats0.committedInstType::SimdAdd            0      0.00%     72.22% # Class of committed instruction. (Count)
system.cpu.commitStats0.committedInstType::SimdAddAcc            0      0.00%     72.22% # Class of committed instruction. (Count)
system.cpu.commitStats0.committedInstType::SimdAlu            0      0.00%     72.22% # Class of committed instruction. (Count)
system.cpu.commitStats0.committedInstType::SimdCmp            0      0.00%     72.22% # Class of committed instruction. (Count)
system.cpu.commitStats0.committedInstType::SimdCvt            0      0.00%     72.22% # Class of committed instruction. (Count)
system.cpu.commitStats0.committedInstType::SimdMisc            0      0.00%     72.22% # Class of committed instruction. (Count)
system.cpu.commitStats0.committedInstType::SimdMult            0      0.00%     72.22% # Class of committed instruction. (Count)
system.cpu.commitStats0.committedInstType::SimdMultAcc            0      0.00%     72.22% # Class of committed instruction. (Count)
system.cpu.commitStats0.committedInstType::SimdMatMultAcc            0      0.00%     72.22% # Class of committed instruction. (Count)
system.cpu.commitStats0.committedInstType::SimdShift            0      0.00%     72.22% # Class of committed instruction. (Count)
system.cpu.commitStats0.committedInstType::SimdShiftAcc            0      0.00%     72.22% # Class of committed instruction. (Count)
system.cpu.commitStats0.committedInstType::SimdDiv            0      0.00%     72.22% # Class of committed instruction. (Count)
system.cpu.commitStats0.committedInstType::SimdSqrt            0      0.00%     72.22% # Class of committed instruction. (Count)
system.cpu.commitStats0.committedInstType::SimdFloatAdd            0      0.00%     72.22% # Class of committed instruction. (Count)
system.cpu.commitStats0.committedInstType::SimdFloatAlu            0      0.00%     72.22% # Class of committed instruction. (Count)
system.cpu.commitStats0.committedInstType::SimdFloatCmp            0      0.00%     72.22% # Class of committed instruction. (Count)
system.cpu.commitStats0.committedInstType::SimdFloatCvt            0      0.00%     72.22% # Class of committed instruction. (Count)
system.cpu.commitStats0.committedInstType::SimdFloatDiv            0      0.00%     72.22% # Class of committed instruction. (Count)
system.cpu.commitStats0.committedInstType::SimdFloatMisc            0      0.00%     72.22% # Class of committed instruction. (Count)
system.cpu.commitStats0.committedInstType::SimdFloatMult            0      0.00%     72.22% # Class of committed instruction. (Count)
system.cpu.commitStats0.committedInstType::SimdFloatMultAcc            0      0.00%     72.22% # Class of committed instruction. (Count)
system.cpu.commitStats0.committedInstType::SimdFloatMatMultAcc            0      0.00%     72.22% # Class of committed instruction. (Count)
system.cpu.commitStats0.committedInstType::SimdFloatSqrt            0      0.00%     72.22% # Class of committed instruction. (Count)
system.cpu.commitStats0.committedInstType::SimdReduceAdd            0      0.00%     72.22% # Class of committed instruction. (Count)
system.cpu.commitStats0.committedInstType::SimdReduceAlu            0      0.00%     72.22% # Class of committed instruction. (Count)
system.cpu.commitStats0.committedInstType::SimdReduceCmp            0      0.00%     72.22% # Class of committed instruction. (Count)
system.cpu.commitStats0.committedInstType::SimdFloatReduceAdd            0      0.00%     72.22% # Class of committed instruction. (Count)
system.cpu.commitStats0.committedInstType::SimdFloatReduceCmp            0      0.00%     72.22% # Class of committed instruction. (Count)
system.cpu.commitStats0.committedInstType::SimdAes            0      0.00%     72.22% # Class of committed instruction. (Count)
system.cpu.commitStats0.committedInstType::SimdAesMix            0      0.00%     72.22% # Class of committed instruction. (Count)
system.cpu.commitStats0.committedInstType::SimdSha1Hash            0      0.00%     72.22% # Class of committed instruction. (Count)
system.cpu.commitStats0.committedInstType::SimdSha1Hash2            0      0.00%     72.22% # Class of committed instruction. (Count)
system.cpu.commitStats0.committedInstType::SimdSha256Hash            0      0.00%     72.22% # Class of committed instruction. (Count)
system.cpu.commitStats0.committedInstType::SimdSha256Hash2            0      0.00%     72.22% # Class of committed instruction. (Count)
system.cpu.commitStats0.committedInstType::SimdShaSigma2            0      0.00%     72.22% # Class of committed instruction. (Count)
system.cpu.commitStats0.committedInstType::SimdShaSigma3            0      0.00%     72.22% # Class of committed instruction. (Count)
system.cpu.commitStats0.committedInstType::SimdPredAlu            0      0.00%     72.22% # Class of committed instruction. (Count)
system.cpu.commitStats0.committedInstType::Matrix            0      0.00%     72.22% # Class of committed instruction. (Count)
system.cpu.commitStats0.committedInstType::MatrixMov            0      0.00%     72.22% # Class of committed instruction. (Count)
system.cpu.commitStats0.committedInstType::MatrixOP            0      0.00%     72.22% # Class of committed instruction. (Count)
system.cpu.commitStats0.committedInstType::MemRead            5     27.78%    100.00% # Class of committed instruction. (Count)
system.cpu.commitStats0.committedInstType::MemWrite            0      0.00%    100.00% # Class of committed instruction. (Count)
system.cpu.commitStats0.committedInstType::FloatMemRead            0      0.00%    100.00% # Class of committed instruction. (Count)
system.cpu.commitStats0.committedInstType::FloatMemWrite            0      0.00%    100.00% # Class of committed instruction. (Count)
system.cpu.commitStats0.committedInstType::IprAccess            0      0.00%    100.00% # Class of committed instruction. (Count)
system.cpu.commitStats0.committedInstType::InstPrefetch            0      0.00%    100.00% # Class of committed instruction. (Count)
system.cpu.commitStats0.committedInstType::VectorUnitStrideLoad            0      0.00%    100.00% # Class of committed instruction. (Count)
system.cpu.commitStats0.committedInstType::VectorUnitStrideStore            0      0.00%    100.00% # Class of committed instruction. (Count)
system.cpu.commitStats0.committedInstType::VectorUnitStrideMaskLoad            0      0.00%    100.00% # Class of committed instruction. (Count)
system.cpu.commitStats0.committedInstType::VectorUnitStrideMaskStore            0      0.00%    100.00% # Class of committed instruction. (Count)
system.cpu.commitStats0.committedInstType::VectorStridedLoad            0      0.00%    100.00% # Class of committed instruction. (Count)
system.cpu.commitStats0.committedInstType::VectorStridedStore            0      0.00%    100.00% # Class of committed instruction. (Count)
system.cpu.commitStats0.committedInstType::VectorIndexedLoad            0      0.00%    100.00% # Class of committed instruction. (Count)
system.cpu.commitStats0.committedInstType::VectorIndexedStore            0      0.00%    100.00% # Class of committed instruction. (Count)
system.cpu.commitStats0.committedInstType::VectorUnitStrideFaultOnlyFirstLoad            0      0.00%    100.00% # Class of committed instruction. (Count)
system.cpu.commitStats0.committedInstType::VectorWholeRegisterLoad            0      0.00%    100.00% # Class of committed instruction. (Count)
system.cpu.commitStats0.committedInstType::VectorWholeRegisterStore            0      0.00%    100.00% # Class of committed instruction. (Count)
system.cpu.commitStats0.committedInstType::VectorIntegerArith            0      0.00%    100.00% # Class of committed instruction. (Count)
system.cpu.commitStats0.committedInstType::VectorFloatArith            0      0.00%    100.00% # Class of committed instruction. (Count)
system.cpu.commitStats0.committedInstType::VectorFloatConvert            0      0.00%    100.00% # Class of committed instruction. (Count)
system.cpu.commitStats0.committedInstType::VectorIntegerReduce            0      0.00%    100.00% # Class of committed instruction. (Count)
system.cpu.commitStats0.committedInstType::VectorFloatReduce            0      0.00%    100.00% # Class of committed instruction. (Count)
system.cpu.commitStats0.committedInstType::VectorMisc            0      0.00%    100.00% # Class of committed instruction. (Count)
system.cpu.commitStats0.committedInstType::VectorIntegerExtension            0      0.00%    100.00% # Class of committed instruction. (Count)
system.cpu.commitStats0.committedInstType::VectorConfig            0      0.00%    100.00% # Class of committed instruction. (Count)
system.cpu.commitStats0.committedInstType::total           18                       # Class of committed instruction. (Count)
system.cpu.commitStats0.committedControl::IsControl            2                       # Class of control type instructions committed (Count)
system.cpu.commitStats0.committedControl::IsDirectControl            1                       # Class of control type instructions committed (Count)
system.cpu.commitStats0.committedControl::IsIndirectControl            1                       # Class of control type instructions committed (Count)
system.cpu.commitStats0.committedControl::IsCondControl            1                       # Class of control type instructions committed (Count)
system.cpu.commitStats0.committedControl::IsUncondControl            1                       # Class of control type instructions committed (Count)
system.cpu.commitStats0.committedControl::IsReturn            1                       # Class of control type instructions committed (Count)
system.cpu.dcache.demandHits::cpu.data              2                       # number of demand (read+write) hits (Count)
system.cpu.dcache.demandHits::switch_cpus.data    113016300                       # number of demand (read+write) hits (Count)
system.cpu.dcache.demandHits::total         113016302                       # number of demand (read+write) hits (Count)
system.cpu.dcache.overallHits::cpu.data             2                       # number of overall hits (Count)
system.cpu.dcache.overallHits::switch_cpus.data    113018475                       # number of overall hits (Count)
system.cpu.dcache.overallHits::total        113018477                       # number of overall hits (Count)
system.cpu.dcache.demandMisses::cpu.data            3                       # number of demand (read+write) misses (Count)
system.cpu.dcache.demandMisses::switch_cpus.data     11011535                       # number of demand (read+write) misses (Count)
system.cpu.dcache.demandMisses::total        11011538                       # number of demand (read+write) misses (Count)
system.cpu.dcache.overallMisses::cpu.data            3                       # number of overall misses (Count)
system.cpu.dcache.overallMisses::switch_cpus.data     11012639                       # number of overall misses (Count)
system.cpu.dcache.overallMisses::total       11012642                       # number of overall misses (Count)
system.cpu.dcache.demandMissLatency::switch_cpus.data 904330813988                       # number of demand (read+write) miss ticks (Tick)
system.cpu.dcache.demandMissLatency::total 904330813988                       # number of demand (read+write) miss ticks (Tick)
system.cpu.dcache.overallMissLatency::switch_cpus.data 904330813988                       # number of overall miss ticks (Tick)
system.cpu.dcache.overallMissLatency::total 904330813988                       # number of overall miss ticks (Tick)
system.cpu.dcache.demandAccesses::cpu.data            5                       # number of demand (read+write) accesses (Count)
system.cpu.dcache.demandAccesses::switch_cpus.data    124027835                       # number of demand (read+write) accesses (Count)
system.cpu.dcache.demandAccesses::total     124027840                       # number of demand (read+write) accesses (Count)
system.cpu.dcache.overallAccesses::cpu.data            5                       # number of overall (read+write) accesses (Count)
system.cpu.dcache.overallAccesses::switch_cpus.data    124031114                       # number of overall (read+write) accesses (Count)
system.cpu.dcache.overallAccesses::total    124031119                       # number of overall (read+write) accesses (Count)
system.cpu.dcache.demandMissRate::cpu.data     0.600000                       # miss rate for demand accesses (Ratio)
system.cpu.dcache.demandMissRate::switch_cpus.data     0.088783                       # miss rate for demand accesses (Ratio)
system.cpu.dcache.demandMissRate::total      0.088783                       # miss rate for demand accesses (Ratio)
system.cpu.dcache.overallMissRate::cpu.data     0.600000                       # miss rate for overall accesses (Ratio)
system.cpu.dcache.overallMissRate::switch_cpus.data     0.088789                       # miss rate for overall accesses (Ratio)
system.cpu.dcache.overallMissRate::total     0.088789                       # miss rate for overall accesses (Ratio)
system.cpu.dcache.demandAvgMissLatency::switch_cpus.data 82125.772110                       # average overall miss latency in ticks ((Tick/Count))
system.cpu.dcache.demandAvgMissLatency::total 82125.749735                       # average overall miss latency in ticks ((Tick/Count))
system.cpu.dcache.overallAvgMissLatency::switch_cpus.data 82117.539128                       # average overall miss latency ((Tick/Count))
system.cpu.dcache.overallAvgMissLatency::total 82117.516758                       # average overall miss latency ((Tick/Count))
system.cpu.dcache.blockedCycles::no_mshrs      8398321                       # number of cycles access was blocked (Cycle)
system.cpu.dcache.blockedCycles::no_targets         6475                       # number of cycles access was blocked (Cycle)
system.cpu.dcache.blockedCauses::no_mshrs       152629                       # number of times access was blocked (Count)
system.cpu.dcache.blockedCauses::no_targets           68                       # number of times access was blocked (Count)
system.cpu.dcache.avgBlocked::no_mshrs      55.024412                       # average number of cycles each access was blocked ((Cycle/Count))
system.cpu.dcache.avgBlocked::no_targets    95.220588                       # average number of cycles each access was blocked ((Cycle/Count))
system.cpu.dcache.writebacks::writebacks       867039                       # number of writebacks (Count)
system.cpu.dcache.writebacks::total            867039                       # number of writebacks (Count)
system.cpu.dcache.demandMshrHits::switch_cpus.data      1327965                       # number of demand (read+write) MSHR hits (Count)
system.cpu.dcache.demandMshrHits::total       1327965                       # number of demand (read+write) MSHR hits (Count)
system.cpu.dcache.overallMshrHits::switch_cpus.data      1327965                       # number of overall MSHR hits (Count)
system.cpu.dcache.overallMshrHits::total      1327965                       # number of overall MSHR hits (Count)
system.cpu.dcache.demandMshrMisses::switch_cpus.data      9683570                       # number of demand (read+write) MSHR misses (Count)
system.cpu.dcache.demandMshrMisses::total      9683570                       # number of demand (read+write) MSHR misses (Count)
system.cpu.dcache.overallMshrMisses::switch_cpus.data      9684633                       # number of overall MSHR misses (Count)
system.cpu.dcache.overallMshrMisses::total      9684633                       # number of overall MSHR misses (Count)
system.cpu.dcache.overallMshrUncacheable::switch_cpus.data        15213                       # number of overall MSHR uncacheable misses (Count)
system.cpu.dcache.overallMshrUncacheable::total        15213                       # number of overall MSHR uncacheable misses (Count)
system.cpu.dcache.demandMshrMissLatency::switch_cpus.data 814221580989                       # number of demand (read+write) MSHR miss ticks (Tick)
system.cpu.dcache.demandMshrMissLatency::total 814221580989                       # number of demand (read+write) MSHR miss ticks (Tick)
system.cpu.dcache.overallMshrMissLatency::switch_cpus.data 814302513989                       # number of overall MSHR miss ticks (Tick)
system.cpu.dcache.overallMshrMissLatency::total 814302513989                       # number of overall MSHR miss ticks (Tick)
system.cpu.dcache.overallMshrUncacheableLatency::switch_cpus.data    177999500                       # number of overall MSHR uncacheable ticks (Tick)
system.cpu.dcache.overallMshrUncacheableLatency::total    177999500                       # number of overall MSHR uncacheable ticks (Tick)
system.cpu.dcache.demandMshrMissRate::switch_cpus.data     0.078076                       # mshr miss ratio for demand accesses (Ratio)
system.cpu.dcache.demandMshrMissRate::total     0.078076                       # mshr miss ratio for demand accesses (Ratio)
system.cpu.dcache.overallMshrMissRate::switch_cpus.data     0.078082                       # mshr miss ratio for overall accesses (Ratio)
system.cpu.dcache.overallMshrMissRate::total     0.078082                       # mshr miss ratio for overall accesses (Ratio)
system.cpu.dcache.demandAvgMshrMissLatency::switch_cpus.data 84082.789817                       # average overall mshr miss latency ((Tick/Count))
system.cpu.dcache.demandAvgMshrMissLatency::total 84082.789817                       # average overall mshr miss latency ((Tick/Count))
system.cpu.dcache.overallAvgMshrMissLatency::switch_cpus.data 84081.917610                       # average overall mshr miss latency ((Tick/Count))
system.cpu.dcache.overallAvgMshrMissLatency::total 84081.917610                       # average overall mshr miss latency ((Tick/Count))
system.cpu.dcache.overallAvgMshrUncacheableLatency::switch_cpus.data 11700.486426                       # average overall mshr uncacheable latency ((Tick/Count))
system.cpu.dcache.overallAvgMshrUncacheableLatency::total 11700.486426                       # average overall mshr uncacheable latency ((Tick/Count))
system.cpu.dcache.replacements                9682578                       # number of replacements (Count)
system.cpu.dcache.LockedRMWReadReq.hits::switch_cpus.data         4129                       # number of LockedRMWReadReq hits (Count)
system.cpu.dcache.LockedRMWReadReq.hits::total         4129                       # number of LockedRMWReadReq hits (Count)
system.cpu.dcache.LockedRMWReadReq.misses::switch_cpus.data          214                       # number of LockedRMWReadReq misses (Count)
system.cpu.dcache.LockedRMWReadReq.misses::total          214                       # number of LockedRMWReadReq misses (Count)
system.cpu.dcache.LockedRMWReadReq.missLatency::switch_cpus.data      5089500                       # number of LockedRMWReadReq miss ticks (Tick)
system.cpu.dcache.LockedRMWReadReq.missLatency::total      5089500                       # number of LockedRMWReadReq miss ticks (Tick)
system.cpu.dcache.LockedRMWReadReq.accesses::switch_cpus.data         4343                       # number of LockedRMWReadReq accesses(hits+misses) (Count)
system.cpu.dcache.LockedRMWReadReq.accesses::total         4343                       # number of LockedRMWReadReq accesses(hits+misses) (Count)
system.cpu.dcache.LockedRMWReadReq.missRate::switch_cpus.data     0.049275                       # miss rate for LockedRMWReadReq accesses (Ratio)
system.cpu.dcache.LockedRMWReadReq.missRate::total     0.049275                       # miss rate for LockedRMWReadReq accesses (Ratio)
system.cpu.dcache.LockedRMWReadReq.avgMissLatency::switch_cpus.data 23782.710280                       # average LockedRMWReadReq miss latency ((Tick/Count))
system.cpu.dcache.LockedRMWReadReq.avgMissLatency::total 23782.710280                       # average LockedRMWReadReq miss latency ((Tick/Count))
system.cpu.dcache.LockedRMWReadReq.mshrMisses::switch_cpus.data          214                       # number of LockedRMWReadReq MSHR misses (Count)
system.cpu.dcache.LockedRMWReadReq.mshrMisses::total          214                       # number of LockedRMWReadReq MSHR misses (Count)
system.cpu.dcache.LockedRMWReadReq.mshrMissLatency::switch_cpus.data     26504000                       # number of LockedRMWReadReq MSHR miss ticks (Tick)
system.cpu.dcache.LockedRMWReadReq.mshrMissLatency::total     26504000                       # number of LockedRMWReadReq MSHR miss ticks (Tick)
system.cpu.dcache.LockedRMWReadReq.mshrMissRate::switch_cpus.data     0.049275                       # mshr miss rate for LockedRMWReadReq accesses (Ratio)
system.cpu.dcache.LockedRMWReadReq.mshrMissRate::total     0.049275                       # mshr miss rate for LockedRMWReadReq accesses (Ratio)
system.cpu.dcache.LockedRMWReadReq.avgMshrMissLatency::switch_cpus.data 123850.467290                       # average LockedRMWReadReq mshr miss latency ((Tick/Count))
system.cpu.dcache.LockedRMWReadReq.avgMshrMissLatency::total 123850.467290                       # average LockedRMWReadReq mshr miss latency ((Tick/Count))
system.cpu.dcache.LockedRMWWriteReq.hits::switch_cpus.data         4343                       # number of LockedRMWWriteReq hits (Count)
system.cpu.dcache.LockedRMWWriteReq.hits::total         4343                       # number of LockedRMWWriteReq hits (Count)
system.cpu.dcache.LockedRMWWriteReq.accesses::switch_cpus.data         4343                       # number of LockedRMWWriteReq accesses(hits+misses) (Count)
system.cpu.dcache.LockedRMWWriteReq.accesses::total         4343                       # number of LockedRMWWriteReq accesses(hits+misses) (Count)
system.cpu.dcache.ReadReq.hits::cpu.data            2                       # number of ReadReq hits (Count)
system.cpu.dcache.ReadReq.hits::switch_cpus.data     99311826                       # number of ReadReq hits (Count)
system.cpu.dcache.ReadReq.hits::total        99311828                       # number of ReadReq hits (Count)
system.cpu.dcache.ReadReq.misses::cpu.data            3                       # number of ReadReq misses (Count)
system.cpu.dcache.ReadReq.misses::switch_cpus.data     10612437                       # number of ReadReq misses (Count)
system.cpu.dcache.ReadReq.misses::total      10612440                       # number of ReadReq misses (Count)
system.cpu.dcache.ReadReq.missLatency::switch_cpus.data 879637488000                       # number of ReadReq miss ticks (Tick)
system.cpu.dcache.ReadReq.missLatency::total 879637488000                       # number of ReadReq miss ticks (Tick)
system.cpu.dcache.ReadReq.accesses::cpu.data            5                       # number of ReadReq accesses(hits+misses) (Count)
system.cpu.dcache.ReadReq.accesses::switch_cpus.data    109924263                       # number of ReadReq accesses(hits+misses) (Count)
system.cpu.dcache.ReadReq.accesses::total    109924268                       # number of ReadReq accesses(hits+misses) (Count)
system.cpu.dcache.ReadReq.missRate::cpu.data     0.600000                       # miss rate for ReadReq accesses (Ratio)
system.cpu.dcache.ReadReq.missRate::switch_cpus.data     0.096543                       # miss rate for ReadReq accesses (Ratio)
system.cpu.dcache.ReadReq.missRate::total     0.096543                       # miss rate for ReadReq accesses (Ratio)
system.cpu.dcache.ReadReq.avgMissLatency::switch_cpus.data 82887.416717                       # average ReadReq miss latency ((Tick/Count))
system.cpu.dcache.ReadReq.avgMissLatency::total 82887.393286                       # average ReadReq miss latency ((Tick/Count))
system.cpu.dcache.ReadReq.mshrHits::switch_cpus.data      1326735                       # number of ReadReq MSHR hits (Count)
system.cpu.dcache.ReadReq.mshrHits::total      1326735                       # number of ReadReq MSHR hits (Count)
system.cpu.dcache.ReadReq.mshrMisses::switch_cpus.data      9285702                       # number of ReadReq MSHR misses (Count)
system.cpu.dcache.ReadReq.mshrMisses::total      9285702                       # number of ReadReq MSHR misses (Count)
system.cpu.dcache.ReadReq.mshrUncacheable::switch_cpus.data         1057                       # number of ReadReq MSHR uncacheable (Count)
system.cpu.dcache.ReadReq.mshrUncacheable::total         1057                       # number of ReadReq MSHR uncacheable (Count)
system.cpu.dcache.ReadReq.mshrMissLatency::switch_cpus.data 789997363500                       # number of ReadReq MSHR miss ticks (Tick)
system.cpu.dcache.ReadReq.mshrMissLatency::total 789997363500                       # number of ReadReq MSHR miss ticks (Tick)
system.cpu.dcache.ReadReq.mshrUncacheableLatency::switch_cpus.data    177999500                       # number of ReadReq MSHR uncacheable ticks (Tick)
system.cpu.dcache.ReadReq.mshrUncacheableLatency::total    177999500                       # number of ReadReq MSHR uncacheable ticks (Tick)
system.cpu.dcache.ReadReq.mshrMissRate::switch_cpus.data     0.084474                       # mshr miss rate for ReadReq accesses (Ratio)
system.cpu.dcache.ReadReq.mshrMissRate::total     0.084474                       # mshr miss rate for ReadReq accesses (Ratio)
system.cpu.dcache.ReadReq.avgMshrMissLatency::switch_cpus.data 85076.751709                       # average ReadReq mshr miss latency ((Tick/Count))
system.cpu.dcache.ReadReq.avgMshrMissLatency::total 85076.751709                       # average ReadReq mshr miss latency ((Tick/Count))
system.cpu.dcache.ReadReq.avgMshrUncacheableLatency::switch_cpus.data 168400.662252                       # average ReadReq mshr uncacheable latency ((Tick/Count))
system.cpu.dcache.ReadReq.avgMshrUncacheableLatency::total 168400.662252                       # average ReadReq mshr uncacheable latency ((Tick/Count))
system.cpu.dcache.SoftPFReq.hits::switch_cpus.data         2175                       # number of SoftPFReq hits (Count)
system.cpu.dcache.SoftPFReq.hits::total          2175                       # number of SoftPFReq hits (Count)
system.cpu.dcache.SoftPFReq.misses::switch_cpus.data         1104                       # number of SoftPFReq misses (Count)
system.cpu.dcache.SoftPFReq.misses::total         1104                       # number of SoftPFReq misses (Count)
system.cpu.dcache.SoftPFReq.accesses::switch_cpus.data         3279                       # number of SoftPFReq accesses(hits+misses) (Count)
system.cpu.dcache.SoftPFReq.accesses::total         3279                       # number of SoftPFReq accesses(hits+misses) (Count)
system.cpu.dcache.SoftPFReq.missRate::switch_cpus.data     0.336688                       # miss rate for SoftPFReq accesses (Ratio)
system.cpu.dcache.SoftPFReq.missRate::total     0.336688                       # miss rate for SoftPFReq accesses (Ratio)
system.cpu.dcache.SoftPFReq.mshrMisses::switch_cpus.data         1063                       # number of SoftPFReq MSHR misses (Count)
system.cpu.dcache.SoftPFReq.mshrMisses::total         1063                       # number of SoftPFReq MSHR misses (Count)
system.cpu.dcache.SoftPFReq.mshrMissLatency::switch_cpus.data     80933000                       # number of SoftPFReq MSHR miss ticks (Tick)
system.cpu.dcache.SoftPFReq.mshrMissLatency::total     80933000                       # number of SoftPFReq MSHR miss ticks (Tick)
system.cpu.dcache.SoftPFReq.mshrMissRate::switch_cpus.data     0.324184                       # mshr miss rate for SoftPFReq accesses (Ratio)
system.cpu.dcache.SoftPFReq.mshrMissRate::total     0.324184                       # mshr miss rate for SoftPFReq accesses (Ratio)
system.cpu.dcache.SoftPFReq.avgMshrMissLatency::switch_cpus.data 76136.406397                       # average SoftPFReq mshr miss latency ((Tick/Count))
system.cpu.dcache.SoftPFReq.avgMshrMissLatency::total 76136.406397                       # average SoftPFReq mshr miss latency ((Tick/Count))
system.cpu.dcache.WriteReq.hits::switch_cpus.data     13704474                       # number of WriteReq hits (Count)
system.cpu.dcache.WriteReq.hits::total       13704474                       # number of WriteReq hits (Count)
system.cpu.dcache.WriteReq.misses::switch_cpus.data       399098                       # number of WriteReq misses (Count)
system.cpu.dcache.WriteReq.misses::total       399098                       # number of WriteReq misses (Count)
system.cpu.dcache.WriteReq.missLatency::switch_cpus.data  24693325988                       # number of WriteReq miss ticks (Tick)
system.cpu.dcache.WriteReq.missLatency::total  24693325988                       # number of WriteReq miss ticks (Tick)
system.cpu.dcache.WriteReq.accesses::switch_cpus.data     14103572                       # number of WriteReq accesses(hits+misses) (Count)
system.cpu.dcache.WriteReq.accesses::total     14103572                       # number of WriteReq accesses(hits+misses) (Count)
system.cpu.dcache.WriteReq.missRate::switch_cpus.data     0.028298                       # miss rate for WriteReq accesses (Ratio)
system.cpu.dcache.WriteReq.missRate::total     0.028298                       # miss rate for WriteReq accesses (Ratio)
system.cpu.dcache.WriteReq.avgMissLatency::switch_cpus.data 61872.838220                       # average WriteReq miss latency ((Tick/Count))
system.cpu.dcache.WriteReq.avgMissLatency::total 61872.838220                       # average WriteReq miss latency ((Tick/Count))
system.cpu.dcache.WriteReq.mshrHits::switch_cpus.data         1230                       # number of WriteReq MSHR hits (Count)
system.cpu.dcache.WriteReq.mshrHits::total         1230                       # number of WriteReq MSHR hits (Count)
system.cpu.dcache.WriteReq.mshrMisses::switch_cpus.data       397868                       # number of WriteReq MSHR misses (Count)
system.cpu.dcache.WriteReq.mshrMisses::total       397868                       # number of WriteReq MSHR misses (Count)
system.cpu.dcache.WriteReq.mshrUncacheable::switch_cpus.data        14156                       # number of WriteReq MSHR uncacheable (Count)
system.cpu.dcache.WriteReq.mshrUncacheable::total        14156                       # number of WriteReq MSHR uncacheable (Count)
system.cpu.dcache.WriteReq.mshrMissLatency::switch_cpus.data  24224217489                       # number of WriteReq MSHR miss ticks (Tick)
system.cpu.dcache.WriteReq.mshrMissLatency::total  24224217489                       # number of WriteReq MSHR miss ticks (Tick)
system.cpu.dcache.WriteReq.mshrMissRate::switch_cpus.data     0.028210                       # mshr miss rate for WriteReq accesses (Ratio)
system.cpu.dcache.WriteReq.mshrMissRate::total     0.028210                       # mshr miss rate for WriteReq accesses (Ratio)
system.cpu.dcache.WriteReq.avgMshrMissLatency::switch_cpus.data 60885.061098                       # average WriteReq mshr miss latency ((Tick/Count))
system.cpu.dcache.WriteReq.avgMshrMissLatency::total 60885.061098                       # average WriteReq mshr miss latency ((Tick/Count))
system.cpu.dcache.power_state.pwrStateResidencyTicks::UNDEFINED 18602797374000                       # Cumulative time (in ticks) in various power states (Tick)
system.cpu.dcache.tags.tagsInUse          1023.978854                       # Average ticks per tags in use ((Tick/Count))
system.cpu.dcache.tags.totalRefs            122711823                       # Total number of references to valid blocks. (Count)
system.cpu.dcache.tags.sampledRefs            9683623                       # Sample count of references to valid blocks. (Count)
system.cpu.dcache.tags.avgRefs              12.672098                       # Average number of references to valid blocks. ((Count/Count))
system.cpu.dcache.tags.warmupTick        6086762928500                       # The tick when the warmup percentage was hit. (Tick)
system.cpu.dcache.tags.occupancies::cpu.data     0.000048                       # Average occupied blocks per tick, per requestor ((Count/Tick))
system.cpu.dcache.tags.occupancies::switch_cpus.data  1023.978806                       # Average occupied blocks per tick, per requestor ((Count/Tick))
system.cpu.dcache.tags.avgOccs::cpu.data     0.000000                       # Average percentage of cache occupancy ((Ratio/Tick))
system.cpu.dcache.tags.avgOccs::switch_cpus.data     0.999979                       # Average percentage of cache occupancy ((Ratio/Tick))
system.cpu.dcache.tags.avgOccs::total        0.999979                       # Average percentage of cache occupancy ((Ratio/Tick))
system.cpu.dcache.tags.occupanciesTaskId::1024         1024                       # Occupied blocks per task id (Count)
system.cpu.dcache.tags.ageTaskId_1024::0           31                       # Occupied blocks per task id, per block age (Count)
system.cpu.dcache.tags.ageTaskId_1024::1          406                       # Occupied blocks per task id, per block age (Count)
system.cpu.dcache.tags.ageTaskId_1024::2          569                       # Occupied blocks per task id, per block age (Count)
system.cpu.dcache.tags.ageTaskId_1024::3           18                       # Occupied blocks per task id, per block age (Count)
system.cpu.dcache.tags.ratioOccsTaskId::1024            1                       # Ratio of occupied blocks and all blocks, per task id (Ratio)
system.cpu.dcache.tags.tagAccesses          257763233                       # Number of tag accesses (Count)
system.cpu.dcache.tags.dataAccesses         257763233                       # Number of data accesses (Count)
system.cpu.dcache.tags.power_state.pwrStateResidencyTicks::UNDEFINED 18602797374000                       # Cumulative time (in ticks) in various power states (Tick)
system.cpu.dtb_walker_cache.demandHits::switch_cpus.mmu.dtb.walker     52045774                       # number of demand (read+write) hits (Count)
system.cpu.dtb_walker_cache.demandHits::total     52045774                       # number of demand (read+write) hits (Count)
system.cpu.dtb_walker_cache.overallHits::switch_cpus.mmu.dtb.walker     52045774                       # number of overall hits (Count)
system.cpu.dtb_walker_cache.overallHits::total     52045774                       # number of overall hits (Count)
system.cpu.dtb_walker_cache.demandMisses::switch_cpus.mmu.dtb.walker    170566957                       # number of demand (read+write) misses (Count)
system.cpu.dtb_walker_cache.demandMisses::total    170566957                       # number of demand (read+write) misses (Count)
system.cpu.dtb_walker_cache.overallMisses::switch_cpus.mmu.dtb.walker    170566957                       # number of overall misses (Count)
system.cpu.dtb_walker_cache.overallMisses::total    170566957                       # number of overall misses (Count)
system.cpu.dtb_walker_cache.demandMissLatency::switch_cpus.mmu.dtb.walker 12317650443500                       # number of demand (read+write) miss ticks (Tick)
system.cpu.dtb_walker_cache.demandMissLatency::total 12317650443500                       # number of demand (read+write) miss ticks (Tick)
system.cpu.dtb_walker_cache.overallMissLatency::switch_cpus.mmu.dtb.walker 12317650443500                       # number of overall miss ticks (Tick)
system.cpu.dtb_walker_cache.overallMissLatency::total 12317650443500                       # number of overall miss ticks (Tick)
system.cpu.dtb_walker_cache.demandAccesses::switch_cpus.mmu.dtb.walker    222612731                       # number of demand (read+write) accesses (Count)
system.cpu.dtb_walker_cache.demandAccesses::total    222612731                       # number of demand (read+write) accesses (Count)
system.cpu.dtb_walker_cache.overallAccesses::switch_cpus.mmu.dtb.walker    222612731                       # number of overall (read+write) accesses (Count)
system.cpu.dtb_walker_cache.overallAccesses::total    222612731                       # number of overall (read+write) accesses (Count)
system.cpu.dtb_walker_cache.demandMissRate::switch_cpus.mmu.dtb.walker     0.766205                       # miss rate for demand accesses (Ratio)
system.cpu.dtb_walker_cache.demandMissRate::total     0.766205                       # miss rate for demand accesses (Ratio)
system.cpu.dtb_walker_cache.overallMissRate::switch_cpus.mmu.dtb.walker     0.766205                       # miss rate for overall accesses (Ratio)
system.cpu.dtb_walker_cache.overallMissRate::total     0.766205                       # miss rate for overall accesses (Ratio)
system.cpu.dtb_walker_cache.demandAvgMissLatency::switch_cpus.mmu.dtb.walker 72215.924234                       # average overall miss latency in ticks ((Tick/Count))
system.cpu.dtb_walker_cache.demandAvgMissLatency::total 72215.924234                       # average overall miss latency in ticks ((Tick/Count))
system.cpu.dtb_walker_cache.overallAvgMissLatency::switch_cpus.mmu.dtb.walker 72215.924234                       # average overall miss latency ((Tick/Count))
system.cpu.dtb_walker_cache.overallAvgMissLatency::total 72215.924234                       # average overall miss latency ((Tick/Count))
system.cpu.dtb_walker_cache.blockedCycles::no_mshrs            0                       # number of cycles access was blocked (Cycle)
system.cpu.dtb_walker_cache.blockedCycles::no_targets            0                       # number of cycles access was blocked (Cycle)
system.cpu.dtb_walker_cache.blockedCauses::no_mshrs            0                       # number of times access was blocked (Count)
system.cpu.dtb_walker_cache.blockedCauses::no_targets            0                       # number of times access was blocked (Count)
system.cpu.dtb_walker_cache.avgBlocked::no_mshrs          nan                       # average number of cycles each access was blocked ((Cycle/Count))
system.cpu.dtb_walker_cache.avgBlocked::no_targets          nan                       # average number of cycles each access was blocked ((Cycle/Count))
system.cpu.dtb_walker_cache.demandMshrMisses::switch_cpus.mmu.dtb.walker    170566957                       # number of demand (read+write) MSHR misses (Count)
system.cpu.dtb_walker_cache.demandMshrMisses::total    170566957                       # number of demand (read+write) MSHR misses (Count)
system.cpu.dtb_walker_cache.overallMshrMisses::switch_cpus.mmu.dtb.walker    170566957                       # number of overall MSHR misses (Count)
system.cpu.dtb_walker_cache.overallMshrMisses::total    170566957                       # number of overall MSHR misses (Count)
system.cpu.dtb_walker_cache.demandMshrMissLatency::switch_cpus.mmu.dtb.walker 12147083486500                       # number of demand (read+write) MSHR miss ticks (Tick)
system.cpu.dtb_walker_cache.demandMshrMissLatency::total 12147083486500                       # number of demand (read+write) MSHR miss ticks (Tick)
system.cpu.dtb_walker_cache.overallMshrMissLatency::switch_cpus.mmu.dtb.walker 12147083486500                       # number of overall MSHR miss ticks (Tick)
system.cpu.dtb_walker_cache.overallMshrMissLatency::total 12147083486500                       # number of overall MSHR miss ticks (Tick)
system.cpu.dtb_walker_cache.demandMshrMissRate::switch_cpus.mmu.dtb.walker     0.766205                       # mshr miss ratio for demand accesses (Ratio)
system.cpu.dtb_walker_cache.demandMshrMissRate::total     0.766205                       # mshr miss ratio for demand accesses (Ratio)
system.cpu.dtb_walker_cache.overallMshrMissRate::switch_cpus.mmu.dtb.walker     0.766205                       # mshr miss ratio for overall accesses (Ratio)
system.cpu.dtb_walker_cache.overallMshrMissRate::total     0.766205                       # mshr miss ratio for overall accesses (Ratio)
system.cpu.dtb_walker_cache.demandAvgMshrMissLatency::switch_cpus.mmu.dtb.walker 71215.924234                       # average overall mshr miss latency ((Tick/Count))
system.cpu.dtb_walker_cache.demandAvgMshrMissLatency::total 71215.924234                       # average overall mshr miss latency ((Tick/Count))
system.cpu.dtb_walker_cache.overallAvgMshrMissLatency::switch_cpus.mmu.dtb.walker 71215.924234                       # average overall mshr miss latency ((Tick/Count))
system.cpu.dtb_walker_cache.overallAvgMshrMissLatency::total 71215.924234                       # average overall mshr miss latency ((Tick/Count))
system.cpu.dtb_walker_cache.replacements    170566204                       # number of replacements (Count)
system.cpu.dtb_walker_cache.ReadReq.hits::switch_cpus.mmu.dtb.walker     52045774                       # number of ReadReq hits (Count)
system.cpu.dtb_walker_cache.ReadReq.hits::total     52045774                       # number of ReadReq hits (Count)
system.cpu.dtb_walker_cache.ReadReq.misses::switch_cpus.mmu.dtb.walker    170566957                       # number of ReadReq misses (Count)
system.cpu.dtb_walker_cache.ReadReq.misses::total    170566957                       # number of ReadReq misses (Count)
system.cpu.dtb_walker_cache.ReadReq.missLatency::switch_cpus.mmu.dtb.walker 12317650443500                       # number of ReadReq miss ticks (Tick)
system.cpu.dtb_walker_cache.ReadReq.missLatency::total 12317650443500                       # number of ReadReq miss ticks (Tick)
system.cpu.dtb_walker_cache.ReadReq.accesses::switch_cpus.mmu.dtb.walker    222612731                       # number of ReadReq accesses(hits+misses) (Count)
system.cpu.dtb_walker_cache.ReadReq.accesses::total    222612731                       # number of ReadReq accesses(hits+misses) (Count)
system.cpu.dtb_walker_cache.ReadReq.missRate::switch_cpus.mmu.dtb.walker     0.766205                       # miss rate for ReadReq accesses (Ratio)
system.cpu.dtb_walker_cache.ReadReq.missRate::total     0.766205                       # miss rate for ReadReq accesses (Ratio)
system.cpu.dtb_walker_cache.ReadReq.avgMissLatency::switch_cpus.mmu.dtb.walker 72215.924234                       # average ReadReq miss latency ((Tick/Count))
system.cpu.dtb_walker_cache.ReadReq.avgMissLatency::total 72215.924234                       # average ReadReq miss latency ((Tick/Count))
system.cpu.dtb_walker_cache.ReadReq.mshrMisses::switch_cpus.mmu.dtb.walker    170566957                       # number of ReadReq MSHR misses (Count)
system.cpu.dtb_walker_cache.ReadReq.mshrMisses::total    170566957                       # number of ReadReq MSHR misses (Count)
system.cpu.dtb_walker_cache.ReadReq.mshrMissLatency::switch_cpus.mmu.dtb.walker 12147083486500                       # number of ReadReq MSHR miss ticks (Tick)
system.cpu.dtb_walker_cache.ReadReq.mshrMissLatency::total 12147083486500                       # number of ReadReq MSHR miss ticks (Tick)
system.cpu.dtb_walker_cache.ReadReq.mshrMissRate::switch_cpus.mmu.dtb.walker     0.766205                       # mshr miss rate for ReadReq accesses (Ratio)
system.cpu.dtb_walker_cache.ReadReq.mshrMissRate::total     0.766205                       # mshr miss rate for ReadReq accesses (Ratio)
system.cpu.dtb_walker_cache.ReadReq.avgMshrMissLatency::switch_cpus.mmu.dtb.walker 71215.924234                       # average ReadReq mshr miss latency ((Tick/Count))
system.cpu.dtb_walker_cache.ReadReq.avgMshrMissLatency::total 71215.924234                       # average ReadReq mshr miss latency ((Tick/Count))
system.cpu.dtb_walker_cache.power_state.pwrStateResidencyTicks::UNDEFINED 18602797374000                       # Cumulative time (in ticks) in various power states (Tick)
system.cpu.dtb_walker_cache.tags.tagsInUse    15.999842                       # Average ticks per tags in use ((Tick/Count))
system.cpu.dtb_walker_cache.tags.totalRefs    222612731                       # Total number of references to valid blocks. (Count)
system.cpu.dtb_walker_cache.tags.sampledRefs    170566957                       # Sample count of references to valid blocks. (Count)
system.cpu.dtb_walker_cache.tags.avgRefs     1.305134                       # Average number of references to valid blocks. ((Count/Count))
system.cpu.dtb_walker_cache.tags.warmupTick 6086763310000                       # The tick when the warmup percentage was hit. (Tick)
system.cpu.dtb_walker_cache.tags.occupancies::switch_cpus.mmu.dtb.walker    15.999842                       # Average occupied blocks per tick, per requestor ((Count/Tick))
system.cpu.dtb_walker_cache.tags.avgOccs::switch_cpus.mmu.dtb.walker     0.999990                       # Average percentage of cache occupancy ((Ratio/Tick))
system.cpu.dtb_walker_cache.tags.avgOccs::total     0.999990                       # Average percentage of cache occupancy ((Ratio/Tick))
system.cpu.dtb_walker_cache.tags.occupanciesTaskId::1024           16                       # Occupied blocks per task id (Count)
system.cpu.dtb_walker_cache.tags.ageTaskId_1024::0            7                       # Occupied blocks per task id, per block age (Count)
system.cpu.dtb_walker_cache.tags.ageTaskId_1024::1            9                       # Occupied blocks per task id, per block age (Count)
system.cpu.dtb_walker_cache.tags.ratioOccsTaskId::1024            1                       # Ratio of occupied blocks and all blocks, per task id (Ratio)
system.cpu.dtb_walker_cache.tags.tagAccesses    615792419                       # Number of tag accesses (Count)
system.cpu.dtb_walker_cache.tags.dataAccesses    615792419                       # Number of data accesses (Count)
system.cpu.dtb_walker_cache.tags.power_state.pwrStateResidencyTicks::UNDEFINED 18602797374000                       # Cumulative time (in ticks) in various power states (Tick)
system.cpu.exec_context.thread_0.numMatAluAccesses            0                       # Number of matrix alu accesses (Count)
system.cpu.exec_context.thread_0.numCallsReturns            1                       # Number of times a function call or return occured (Count)
system.cpu.exec_context.thread_0.numMatInsts            0                       # Number of matrix instructions (Count)
system.cpu.exec_context.thread_0.numIdleCycles            0                       # Number of idle cycles (Cycle)
system.cpu.exec_context.thread_0.numBusyCycles           21                       # Number of busy cycles (Cycle)
system.cpu.exec_context.thread_0.notIdleFraction            1                       # Percentage of non-idle cycles (Ratio)
system.cpu.exec_context.thread_0.idleFraction            0                       # Percentage of idle cycles (Ratio)
system.cpu.executeStats0.numInsts                   0                       # Number of executed instructions (Count)
system.cpu.executeStats0.numNop                     0                       # Number of nop insts executed (Count)
system.cpu.executeStats0.numBranches                0                       # Number of branches executed (Count)
system.cpu.executeStats0.numLoadInsts               0                       # Number of load instructions executed (Count)
system.cpu.executeStats0.numStoreInsts              5                       # Number of stores executed (Count)
system.cpu.executeStats0.instRate                   0                       # Inst execution rate ((Count/Cycle))
system.cpu.executeStats0.numFpRegWrites             0                       # Number of times the floating registers were written (Count)
system.cpu.executeStats0.numIntAluAccesses           18                       # Number of integer alu accesses (Count)
system.cpu.executeStats0.numIntRegReads            20                       # Number of times the integer registers were read (Count)
system.cpu.executeStats0.numIntRegWrites           16                       # Number of times the integer registers were written (Count)
system.cpu.executeStats0.numMemRefs                 5                       # Number of memory refs (Count)
system.cpu.executeStats0.numMiscRegReads            8                       # Number of times the Misc registers were read (Count)
system.cpu.executeStats0.numVecAluAccesses            0                       # Number of vector alu accesses (Count)
system.cpu.executeStats0.numDiscardedOps            0                       # Number of ops (including micro ops) which were discarded before commit (Count)
system.cpu.fetchStats0.numInsts                     8                       # Number of instructions fetched (thread level) (Count)
system.cpu.fetchStats0.numOps                      18                       # Number of ops (including micro ops) fetched (thread level) (Count)
system.cpu.fetchStats0.fetchRate             0.380952                       # Number of inst fetches per cycle ((Count/Cycle))
system.cpu.fetchStats0.numBranches                  2                       # Number of branches fetched (Count)
system.cpu.fetchStats0.branchRate            0.095238                       # Number of branch fetches per cycle (Ratio)
system.cpu.fetchStats0.numFetchSuspends             0                       # Number of times Execute suspended instruction fetching (Count)
system.cpu.icache.demandHits::cpu.inst              9                       # number of demand (read+write) hits (Count)
system.cpu.icache.demandHits::switch_cpus.inst     12611192                       # number of demand (read+write) hits (Count)
system.cpu.icache.demandHits::total          12611201                       # number of demand (read+write) hits (Count)
system.cpu.icache.overallHits::cpu.inst             9                       # number of overall hits (Count)
system.cpu.icache.overallHits::switch_cpus.inst     12611192                       # number of overall hits (Count)
system.cpu.icache.overallHits::total         12611201                       # number of overall hits (Count)
system.cpu.icache.demandMisses::cpu.inst            2                       # number of demand (read+write) misses (Count)
system.cpu.icache.demandMisses::switch_cpus.inst      1297672                       # number of demand (read+write) misses (Count)
system.cpu.icache.demandMisses::total         1297674                       # number of demand (read+write) misses (Count)
system.cpu.icache.overallMisses::cpu.inst            2                       # number of overall misses (Count)
system.cpu.icache.overallMisses::switch_cpus.inst      1297672                       # number of overall misses (Count)
system.cpu.icache.overallMisses::total        1297674                       # number of overall misses (Count)
system.cpu.icache.demandMissLatency::switch_cpus.inst  76714790954                       # number of demand (read+write) miss ticks (Tick)
system.cpu.icache.demandMissLatency::total  76714790954                       # number of demand (read+write) miss ticks (Tick)
system.cpu.icache.overallMissLatency::switch_cpus.inst  76714790954                       # number of overall miss ticks (Tick)
system.cpu.icache.overallMissLatency::total  76714790954                       # number of overall miss ticks (Tick)
system.cpu.icache.demandAccesses::cpu.inst           11                       # number of demand (read+write) accesses (Count)
system.cpu.icache.demandAccesses::switch_cpus.inst     13908864                       # number of demand (read+write) accesses (Count)
system.cpu.icache.demandAccesses::total      13908875                       # number of demand (read+write) accesses (Count)
system.cpu.icache.overallAccesses::cpu.inst           11                       # number of overall (read+write) accesses (Count)
system.cpu.icache.overallAccesses::switch_cpus.inst     13908864                       # number of overall (read+write) accesses (Count)
system.cpu.icache.overallAccesses::total     13908875                       # number of overall (read+write) accesses (Count)
system.cpu.icache.demandMissRate::cpu.inst     0.181818                       # miss rate for demand accesses (Ratio)
system.cpu.icache.demandMissRate::switch_cpus.inst     0.093298                       # miss rate for demand accesses (Ratio)
system.cpu.icache.demandMissRate::total      0.093298                       # miss rate for demand accesses (Ratio)
system.cpu.icache.overallMissRate::cpu.inst     0.181818                       # miss rate for overall accesses (Ratio)
system.cpu.icache.overallMissRate::switch_cpus.inst     0.093298                       # miss rate for overall accesses (Ratio)
system.cpu.icache.overallMissRate::total     0.093298                       # miss rate for overall accesses (Ratio)
system.cpu.icache.demandAvgMissLatency::switch_cpus.inst 59117.242997                       # average overall miss latency in ticks ((Tick/Count))
system.cpu.icache.demandAvgMissLatency::total 59117.151884                       # average overall miss latency in ticks ((Tick/Count))
system.cpu.icache.overallAvgMissLatency::switch_cpus.inst 59117.242997                       # average overall miss latency ((Tick/Count))
system.cpu.icache.overallAvgMissLatency::total 59117.151884                       # average overall miss latency ((Tick/Count))
system.cpu.icache.blockedCycles::no_mshrs        46439                       # number of cycles access was blocked (Cycle)
system.cpu.icache.blockedCycles::no_targets            0                       # number of cycles access was blocked (Cycle)
system.cpu.icache.blockedCauses::no_mshrs          730                       # number of times access was blocked (Count)
system.cpu.icache.blockedCauses::no_targets            0                       # number of times access was blocked (Count)
system.cpu.icache.avgBlocked::no_mshrs      63.615068                       # average number of cycles each access was blocked ((Cycle/Count))
system.cpu.icache.avgBlocked::no_targets          nan                       # average number of cycles each access was blocked ((Cycle/Count))
system.cpu.icache.writebacks::writebacks      1189768                       # number of writebacks (Count)
system.cpu.icache.writebacks::total           1189768                       # number of writebacks (Count)
system.cpu.icache.demandMshrHits::switch_cpus.inst       107392                       # number of demand (read+write) MSHR hits (Count)
system.cpu.icache.demandMshrHits::total        107392                       # number of demand (read+write) MSHR hits (Count)
system.cpu.icache.overallMshrHits::switch_cpus.inst       107392                       # number of overall MSHR hits (Count)
system.cpu.icache.overallMshrHits::total       107392                       # number of overall MSHR hits (Count)
system.cpu.icache.demandMshrMisses::switch_cpus.inst      1190280                       # number of demand (read+write) MSHR misses (Count)
system.cpu.icache.demandMshrMisses::total      1190280                       # number of demand (read+write) MSHR misses (Count)
system.cpu.icache.overallMshrMisses::switch_cpus.inst      1190280                       # number of overall MSHR misses (Count)
system.cpu.icache.overallMshrMisses::total      1190280                       # number of overall MSHR misses (Count)
system.cpu.icache.demandMshrMissLatency::switch_cpus.inst  69816331979                       # number of demand (read+write) MSHR miss ticks (Tick)
system.cpu.icache.demandMshrMissLatency::total  69816331979                       # number of demand (read+write) MSHR miss ticks (Tick)
system.cpu.icache.overallMshrMissLatency::switch_cpus.inst  69816331979                       # number of overall MSHR miss ticks (Tick)
system.cpu.icache.overallMshrMissLatency::total  69816331979                       # number of overall MSHR miss ticks (Tick)
system.cpu.icache.demandMshrMissRate::switch_cpus.inst     0.085577                       # mshr miss ratio for demand accesses (Ratio)
system.cpu.icache.demandMshrMissRate::total     0.085577                       # mshr miss ratio for demand accesses (Ratio)
system.cpu.icache.overallMshrMissRate::switch_cpus.inst     0.085577                       # mshr miss ratio for overall accesses (Ratio)
system.cpu.icache.overallMshrMissRate::total     0.085577                       # mshr miss ratio for overall accesses (Ratio)
system.cpu.icache.demandAvgMshrMissLatency::switch_cpus.inst 58655.385270                       # average overall mshr miss latency ((Tick/Count))
system.cpu.icache.demandAvgMshrMissLatency::total 58655.385270                       # average overall mshr miss latency ((Tick/Count))
system.cpu.icache.overallAvgMshrMissLatency::switch_cpus.inst 58655.385270                       # average overall mshr miss latency ((Tick/Count))
system.cpu.icache.overallAvgMshrMissLatency::total 58655.385270                       # average overall mshr miss latency ((Tick/Count))
system.cpu.icache.replacements                1189768                       # number of replacements (Count)
system.cpu.icache.ReadReq.hits::cpu.inst            9                       # number of ReadReq hits (Count)
system.cpu.icache.ReadReq.hits::switch_cpus.inst     12611192                       # number of ReadReq hits (Count)
system.cpu.icache.ReadReq.hits::total        12611201                       # number of ReadReq hits (Count)
system.cpu.icache.ReadReq.misses::cpu.inst            2                       # number of ReadReq misses (Count)
system.cpu.icache.ReadReq.misses::switch_cpus.inst      1297672                       # number of ReadReq misses (Count)
system.cpu.icache.ReadReq.misses::total       1297674                       # number of ReadReq misses (Count)
system.cpu.icache.ReadReq.missLatency::switch_cpus.inst  76714790954                       # number of ReadReq miss ticks (Tick)
system.cpu.icache.ReadReq.missLatency::total  76714790954                       # number of ReadReq miss ticks (Tick)
system.cpu.icache.ReadReq.accesses::cpu.inst           11                       # number of ReadReq accesses(hits+misses) (Count)
system.cpu.icache.ReadReq.accesses::switch_cpus.inst     13908864                       # number of ReadReq accesses(hits+misses) (Count)
system.cpu.icache.ReadReq.accesses::total     13908875                       # number of ReadReq accesses(hits+misses) (Count)
system.cpu.icache.ReadReq.missRate::cpu.inst     0.181818                       # miss rate for ReadReq accesses (Ratio)
system.cpu.icache.ReadReq.missRate::switch_cpus.inst     0.093298                       # miss rate for ReadReq accesses (Ratio)
system.cpu.icache.ReadReq.missRate::total     0.093298                       # miss rate for ReadReq accesses (Ratio)
system.cpu.icache.ReadReq.avgMissLatency::switch_cpus.inst 59117.242997                       # average ReadReq miss latency ((Tick/Count))
system.cpu.icache.ReadReq.avgMissLatency::total 59117.151884                       # average ReadReq miss latency ((Tick/Count))
system.cpu.icache.ReadReq.mshrHits::switch_cpus.inst       107392                       # number of ReadReq MSHR hits (Count)
system.cpu.icache.ReadReq.mshrHits::total       107392                       # number of ReadReq MSHR hits (Count)
system.cpu.icache.ReadReq.mshrMisses::switch_cpus.inst      1190280                       # number of ReadReq MSHR misses (Count)
system.cpu.icache.ReadReq.mshrMisses::total      1190280                       # number of ReadReq MSHR misses (Count)
system.cpu.icache.ReadReq.mshrMissLatency::switch_cpus.inst  69816331979                       # number of ReadReq MSHR miss ticks (Tick)
system.cpu.icache.ReadReq.mshrMissLatency::total  69816331979                       # number of ReadReq MSHR miss ticks (Tick)
system.cpu.icache.ReadReq.mshrMissRate::switch_cpus.inst     0.085577                       # mshr miss rate for ReadReq accesses (Ratio)
system.cpu.icache.ReadReq.mshrMissRate::total     0.085577                       # mshr miss rate for ReadReq accesses (Ratio)
system.cpu.icache.ReadReq.avgMshrMissLatency::switch_cpus.inst 58655.385270                       # average ReadReq mshr miss latency ((Tick/Count))
system.cpu.icache.ReadReq.avgMshrMissLatency::total 58655.385270                       # average ReadReq mshr miss latency ((Tick/Count))
system.cpu.icache.power_state.pwrStateResidencyTicks::UNDEFINED 18602797374000                       # Cumulative time (in ticks) in various power states (Tick)
system.cpu.icache.tags.tagsInUse           511.997401                       # Average ticks per tags in use ((Tick/Count))
system.cpu.icache.tags.totalRefs             13801481                       # Total number of references to valid blocks. (Count)
system.cpu.icache.tags.sampledRefs            1190280                       # Sample count of references to valid blocks. (Count)
system.cpu.icache.tags.avgRefs              11.595155                       # Average number of references to valid blocks. ((Count/Count))
system.cpu.icache.tags.warmupTick        6086762928500                       # The tick when the warmup percentage was hit. (Tick)
system.cpu.icache.tags.occupancies::cpu.inst     0.000010                       # Average occupied blocks per tick, per requestor ((Count/Tick))
system.cpu.icache.tags.occupancies::switch_cpus.inst   511.997392                       # Average occupied blocks per tick, per requestor ((Count/Tick))
system.cpu.icache.tags.avgOccs::cpu.inst     0.000000                       # Average percentage of cache occupancy ((Ratio/Tick))
system.cpu.icache.tags.avgOccs::switch_cpus.inst     0.999995                       # Average percentage of cache occupancy ((Ratio/Tick))
system.cpu.icache.tags.avgOccs::total        0.999995                       # Average percentage of cache occupancy ((Ratio/Tick))
system.cpu.icache.tags.occupanciesTaskId::1024          512                       # Occupied blocks per task id (Count)
system.cpu.icache.tags.ageTaskId_1024::0          131                       # Occupied blocks per task id, per block age (Count)
system.cpu.icache.tags.ageTaskId_1024::1          348                       # Occupied blocks per task id, per block age (Count)
system.cpu.icache.tags.ageTaskId_1024::2           33                       # Occupied blocks per task id, per block age (Count)
system.cpu.icache.tags.ratioOccsTaskId::1024            1                       # Ratio of occupied blocks and all blocks, per task id (Ratio)
system.cpu.icache.tags.tagAccesses           29008030                       # Number of tag accesses (Count)
system.cpu.icache.tags.dataAccesses          29008030                       # Number of data accesses (Count)
system.cpu.icache.tags.power_state.pwrStateResidencyTicks::UNDEFINED 18602797374000                       # Cumulative time (in ticks) in various power states (Tick)
system.cpu.interrupts.clk_domain.clock           8000                       # Clock period in ticks (Tick)
system.cpu.itb_walker_cache.demandHits::switch_cpus.mmu.itb.walker        11816                       # number of demand (read+write) hits (Count)
system.cpu.itb_walker_cache.demandHits::total        11816                       # number of demand (read+write) hits (Count)
system.cpu.itb_walker_cache.overallHits::switch_cpus.mmu.itb.walker        11816                       # number of overall hits (Count)
system.cpu.itb_walker_cache.overallHits::total        11816                       # number of overall hits (Count)
system.cpu.itb_walker_cache.demandMisses::switch_cpus.mmu.itb.walker         4734                       # number of demand (read+write) misses (Count)
system.cpu.itb_walker_cache.demandMisses::total         4734                       # number of demand (read+write) misses (Count)
system.cpu.itb_walker_cache.overallMisses::switch_cpus.mmu.itb.walker         4734                       # number of overall misses (Count)
system.cpu.itb_walker_cache.overallMisses::total         4734                       # number of overall misses (Count)
system.cpu.itb_walker_cache.demandMissLatency::switch_cpus.mmu.itb.walker    307374000                       # number of demand (read+write) miss ticks (Tick)
system.cpu.itb_walker_cache.demandMissLatency::total    307374000                       # number of demand (read+write) miss ticks (Tick)
system.cpu.itb_walker_cache.overallMissLatency::switch_cpus.mmu.itb.walker    307374000                       # number of overall miss ticks (Tick)
system.cpu.itb_walker_cache.overallMissLatency::total    307374000                       # number of overall miss ticks (Tick)
system.cpu.itb_walker_cache.demandAccesses::switch_cpus.mmu.itb.walker        16550                       # number of demand (read+write) accesses (Count)
system.cpu.itb_walker_cache.demandAccesses::total        16550                       # number of demand (read+write) accesses (Count)
system.cpu.itb_walker_cache.overallAccesses::switch_cpus.mmu.itb.walker        16550                       # number of overall (read+write) accesses (Count)
system.cpu.itb_walker_cache.overallAccesses::total        16550                       # number of overall (read+write) accesses (Count)
system.cpu.itb_walker_cache.demandMissRate::switch_cpus.mmu.itb.walker     0.286042                       # miss rate for demand accesses (Ratio)
system.cpu.itb_walker_cache.demandMissRate::total     0.286042                       # miss rate for demand accesses (Ratio)
system.cpu.itb_walker_cache.overallMissRate::switch_cpus.mmu.itb.walker     0.286042                       # miss rate for overall accesses (Ratio)
system.cpu.itb_walker_cache.overallMissRate::total     0.286042                       # miss rate for overall accesses (Ratio)
system.cpu.itb_walker_cache.demandAvgMissLatency::switch_cpus.mmu.itb.walker 64929.024081                       # average overall miss latency in ticks ((Tick/Count))
system.cpu.itb_walker_cache.demandAvgMissLatency::total 64929.024081                       # average overall miss latency in ticks ((Tick/Count))
system.cpu.itb_walker_cache.overallAvgMissLatency::switch_cpus.mmu.itb.walker 64929.024081                       # average overall miss latency ((Tick/Count))
system.cpu.itb_walker_cache.overallAvgMissLatency::total 64929.024081                       # average overall miss latency ((Tick/Count))
system.cpu.itb_walker_cache.blockedCycles::no_mshrs            0                       # number of cycles access was blocked (Cycle)
system.cpu.itb_walker_cache.blockedCycles::no_targets            0                       # number of cycles access was blocked (Cycle)
system.cpu.itb_walker_cache.blockedCauses::no_mshrs            0                       # number of times access was blocked (Count)
system.cpu.itb_walker_cache.blockedCauses::no_targets            0                       # number of times access was blocked (Count)
system.cpu.itb_walker_cache.avgBlocked::no_mshrs          nan                       # average number of cycles each access was blocked ((Cycle/Count))
system.cpu.itb_walker_cache.avgBlocked::no_targets          nan                       # average number of cycles each access was blocked ((Cycle/Count))
system.cpu.itb_walker_cache.demandMshrMisses::switch_cpus.mmu.itb.walker         4734                       # number of demand (read+write) MSHR misses (Count)
system.cpu.itb_walker_cache.demandMshrMisses::total         4734                       # number of demand (read+write) MSHR misses (Count)
system.cpu.itb_walker_cache.overallMshrMisses::switch_cpus.mmu.itb.walker         4734                       # number of overall MSHR misses (Count)
system.cpu.itb_walker_cache.overallMshrMisses::total         4734                       # number of overall MSHR misses (Count)
system.cpu.itb_walker_cache.demandMshrMissLatency::switch_cpus.mmu.itb.walker    302640000                       # number of demand (read+write) MSHR miss ticks (Tick)
system.cpu.itb_walker_cache.demandMshrMissLatency::total    302640000                       # number of demand (read+write) MSHR miss ticks (Tick)
system.cpu.itb_walker_cache.overallMshrMissLatency::switch_cpus.mmu.itb.walker    302640000                       # number of overall MSHR miss ticks (Tick)
system.cpu.itb_walker_cache.overallMshrMissLatency::total    302640000                       # number of overall MSHR miss ticks (Tick)
system.cpu.itb_walker_cache.demandMshrMissRate::switch_cpus.mmu.itb.walker     0.286042                       # mshr miss ratio for demand accesses (Ratio)
system.cpu.itb_walker_cache.demandMshrMissRate::total     0.286042                       # mshr miss ratio for demand accesses (Ratio)
system.cpu.itb_walker_cache.overallMshrMissRate::switch_cpus.mmu.itb.walker     0.286042                       # mshr miss ratio for overall accesses (Ratio)
system.cpu.itb_walker_cache.overallMshrMissRate::total     0.286042                       # mshr miss ratio for overall accesses (Ratio)
system.cpu.itb_walker_cache.demandAvgMshrMissLatency::switch_cpus.mmu.itb.walker 63929.024081                       # average overall mshr miss latency ((Tick/Count))
system.cpu.itb_walker_cache.demandAvgMshrMissLatency::total 63929.024081                       # average overall mshr miss latency ((Tick/Count))
system.cpu.itb_walker_cache.overallAvgMshrMissLatency::switch_cpus.mmu.itb.walker 63929.024081                       # average overall mshr miss latency ((Tick/Count))
system.cpu.itb_walker_cache.overallAvgMshrMissLatency::total 63929.024081                       # average overall mshr miss latency ((Tick/Count))
system.cpu.itb_walker_cache.replacements         4340                       # number of replacements (Count)
system.cpu.itb_walker_cache.ReadReq.hits::switch_cpus.mmu.itb.walker        11816                       # number of ReadReq hits (Count)
system.cpu.itb_walker_cache.ReadReq.hits::total        11816                       # number of ReadReq hits (Count)
system.cpu.itb_walker_cache.ReadReq.misses::switch_cpus.mmu.itb.walker         4734                       # number of ReadReq misses (Count)
system.cpu.itb_walker_cache.ReadReq.misses::total         4734                       # number of ReadReq misses (Count)
system.cpu.itb_walker_cache.ReadReq.missLatency::switch_cpus.mmu.itb.walker    307374000                       # number of ReadReq miss ticks (Tick)
system.cpu.itb_walker_cache.ReadReq.missLatency::total    307374000                       # number of ReadReq miss ticks (Tick)
system.cpu.itb_walker_cache.ReadReq.accesses::switch_cpus.mmu.itb.walker        16550                       # number of ReadReq accesses(hits+misses) (Count)
system.cpu.itb_walker_cache.ReadReq.accesses::total        16550                       # number of ReadReq accesses(hits+misses) (Count)
system.cpu.itb_walker_cache.ReadReq.missRate::switch_cpus.mmu.itb.walker     0.286042                       # miss rate for ReadReq accesses (Ratio)
system.cpu.itb_walker_cache.ReadReq.missRate::total     0.286042                       # miss rate for ReadReq accesses (Ratio)
system.cpu.itb_walker_cache.ReadReq.avgMissLatency::switch_cpus.mmu.itb.walker 64929.024081                       # average ReadReq miss latency ((Tick/Count))
system.cpu.itb_walker_cache.ReadReq.avgMissLatency::total 64929.024081                       # average ReadReq miss latency ((Tick/Count))
system.cpu.itb_walker_cache.ReadReq.mshrMisses::switch_cpus.mmu.itb.walker         4734                       # number of ReadReq MSHR misses (Count)
system.cpu.itb_walker_cache.ReadReq.mshrMisses::total         4734                       # number of ReadReq MSHR misses (Count)
system.cpu.itb_walker_cache.ReadReq.mshrMissLatency::switch_cpus.mmu.itb.walker    302640000                       # number of ReadReq MSHR miss ticks (Tick)
system.cpu.itb_walker_cache.ReadReq.mshrMissLatency::total    302640000                       # number of ReadReq MSHR miss ticks (Tick)
system.cpu.itb_walker_cache.ReadReq.mshrMissRate::switch_cpus.mmu.itb.walker     0.286042                       # mshr miss rate for ReadReq accesses (Ratio)
system.cpu.itb_walker_cache.ReadReq.mshrMissRate::total     0.286042                       # mshr miss rate for ReadReq accesses (Ratio)
system.cpu.itb_walker_cache.ReadReq.avgMshrMissLatency::switch_cpus.mmu.itb.walker 63929.024081                       # average ReadReq mshr miss latency ((Tick/Count))
system.cpu.itb_walker_cache.ReadReq.avgMshrMissLatency::total 63929.024081                       # average ReadReq mshr miss latency ((Tick/Count))
system.cpu.itb_walker_cache.power_state.pwrStateResidencyTicks::UNDEFINED 18602797374000                       # Cumulative time (in ticks) in various power states (Tick)
system.cpu.itb_walker_cache.tags.tagsInUse    15.986596                       # Average ticks per tags in use ((Tick/Count))
system.cpu.itb_walker_cache.tags.totalRefs        16550                       # Total number of references to valid blocks. (Count)
system.cpu.itb_walker_cache.tags.sampledRefs         4734                       # Sample count of references to valid blocks. (Count)
system.cpu.itb_walker_cache.tags.avgRefs     3.495986                       # Average number of references to valid blocks. ((Count/Count))
system.cpu.itb_walker_cache.tags.warmupTick 6086763015000                       # The tick when the warmup percentage was hit. (Tick)
system.cpu.itb_walker_cache.tags.occupancies::switch_cpus.mmu.itb.walker    15.986596                       # Average occupied blocks per tick, per requestor ((Count/Tick))
system.cpu.itb_walker_cache.tags.avgOccs::switch_cpus.mmu.itb.walker     0.999162                       # Average percentage of cache occupancy ((Ratio/Tick))
system.cpu.itb_walker_cache.tags.avgOccs::total     0.999162                       # Average percentage of cache occupancy ((Ratio/Tick))
system.cpu.itb_walker_cache.tags.occupanciesTaskId::1024           16                       # Occupied blocks per task id (Count)
system.cpu.itb_walker_cache.tags.ageTaskId_1024::1            8                       # Occupied blocks per task id, per block age (Count)
system.cpu.itb_walker_cache.tags.ageTaskId_1024::2            8                       # Occupied blocks per task id, per block age (Count)
[...]
system.switch_cpus.fetch.nisnDist::stdev     0.472873                       # Number of instructions fetched each cycle (Total) (Count)
system.switch_cpus.fetch.nisnDist::underflows            0      0.00%      0.00% # Number of instructions fetched each cycle (Total) (Count)
system.switch_cpus.fetch.nisnDist::0      24806613044     99.46%     99.46% # Number of instructions fetched each cycle (Total) (Count)
system.switch_cpus.fetch.nisnDist::1         12916643      0.05%     99.51% # Number of instructions fetched each cycle (Total) (Count)
system.switch_cpus.fetch.nisnDist::2          2540020      0.01%     99.52% # Number of instructions fetched each cycle (Total) (Count)
system.switch_cpus.fetch.nisnDist::3         12215241      0.05%     99.57% # Number of instructions fetched each cycle (Total) (Count)
system.switch_cpus.fetch.nisnDist::4         13679067      0.05%     99.62% # Number of instructions fetched each cycle (Total) (Count)
system.switch_cpus.fetch.nisnDist::5         12790270      0.05%     99.68% # Number of instructions fetched each cycle (Total) (Count)
system.switch_cpus.fetch.nisnDist::6          2554945      0.01%     99.69% # Number of instructions fetched each cycle (Total) (Count)
system.switch_cpus.fetch.nisnDist::7         11760609      0.05%     99.73% # Number of instructions fetched each cycle (Total) (Count)
system.switch_cpus.fetch.nisnDist::8         66612654      0.27%    100.00% # Number of instructions fetched each cycle (Total) (Count)
system.switch_cpus.fetch.nisnDist::overflows            0      0.00%    100.00% # Number of instructions fetched each cycle (Total) (Count)
system.switch_cpus.fetch.nisnDist::min_value            0                       # Number of instructions fetched each cycle (Total) (Count)
system.switch_cpus.fetch.nisnDist::max_value            8                       # Number of instructions fetched each cycle (Total) (Count)
system.switch_cpus.fetch.nisnDist::total  24941682493                       # Number of instructions fetched each cycle (Total) (Count)
system.switch_cpus.fetchStats0.numInsts     354782503                       # Number of instructions fetched (thread level) (Count)
system.switch_cpus.fetchStats0.numOps               0                       # Number of ops (including micro ops) fetched (thread level) (Count)
system.switch_cpus.fetchStats0.fetchRate     0.014186                       # Number of inst fetches per cycle ((Count/Cycle))
system.switch_cpus.fetchStats0.numBranches     52852375                       # Number of branches fetched (Count)
system.switch_cpus.fetchStats0.branchRate     0.002113                       # Number of branch fetches per cycle (Ratio)
system.switch_cpus.fetchStats0.icacheStallCycles     76857563                       # ICache total stall cycles (Cycle)
system.switch_cpus.fetchStats0.numFetchSuspends            0                       # Number of times Execute suspended instruction fetching (Count)
system.switch_cpus.iew.idleCycles                   0                       # Number of cycles IEW is idle (Cycle)
system.switch_cpus.iew.squashCycles            786424                       # Number of cycles IEW is squashing (Cycle)
system.switch_cpus.iew.blockCycles          273209385                       # Number of cycles IEW is blocking (Cycle)
system.switch_cpus.iew.unblockCycles         40090694                       # Number of cycles IEW is unblocking (Cycle)
system.switch_cpus.iew.dispatchedInsts      776651803                       # Number of instructions dispatched to IQ (Count)
system.switch_cpus.iew.dispSquashedInsts       402468                       # Number of squashed instructions skipped by dispatch (Count)
system.switch_cpus.iew.dispLoadInsts        114758160                       # Number of dispatched load instructions (Count)
system.switch_cpus.iew.dispStoreInsts        15574031                       # Number of dispatched store instructions (Count)
system.switch_cpus.iew.dispNonSpecInsts        649920                       # Number of dispatched non-speculative instructions (Count)
system.switch_cpus.iew.iqFullEvents            366150                       # Number of times the IQ has become full, causing a stall (Count)
system.switch_cpus.iew.lsqFullEvents         39194742                       # Number of times the LSQ has become full, causing a stall (Count)
system.switch_cpus.iew.memOrderViolationEvents        41664                       # Number of memory order violations (Count)
system.switch_cpus.iew.predictedTakenIncorrect       373013                       # Number of branches that were predicted taken incorrectly (Count)
system.switch_cpus.iew.predictedNotTakenIncorrect       362726                       # Number of branches that were predicted not taken incorrectly (Count)
system.switch_cpus.iew.branchMispredicts       735739                       # Number of branch mispredicts detected at execute (Count)
system.switch_cpus.iew.instsToCommit        770117344                       # Cumulative count of insts sent to commit (Count)
system.switch_cpus.iew.writebackCount       769941268                       # Cumulative count of insts written-back (Count)
system.switch_cpus.iew.producerInst         519323768                       # Number of instructions producing a value (Count)
system.switch_cpus.iew.consumerInst         773876906                       # Number of instructions consuming a value (Count)
system.switch_cpus.iew.wbRate                0.030787                       # Insts written-back per cycle ((Count/Cycle))
system.switch_cpus.iew.wbFanout              0.671068                       # Average fanout of values written-back ((Count/Count))
system.switch_cpus.lsq0.forwLoads             3744957                       # Number of loads that had data forwarded from stores (Count)
system.switch_cpus.lsq0.squashedLoads         2405893                       # Number of loads squashed (Count)
system.switch_cpus.lsq0.ignoredResponses         5589                       # Number of memory responses ignored because the instruction is squashed (Count)
system.switch_cpus.lsq0.memOrderViolation        41664                       # Number of memory ordering violations (Count)
system.switch_cpus.lsq0.squashedStores        1445377                       # Number of stores squashed (Count)
system.switch_cpus.lsq0.rescheduledLoads        11612                       # Number of loads that were rescheduled (Count)
system.switch_cpus.lsq0.blockedByCache         130076                       # Number of times an access to memory failed due to the cache being blocked (Count)
system.switch_cpus.lsq0.loadToUse::samples    112349018                       # Distribution of cycle latency between the first time a load is issued and its completion (Unspecified)
system.switch_cpus.lsq0.loadToUse::mean   4188.119498                       # Distribution of cycle latency between the first time a load is issued and its completion (Unspecified)
system.switch_cpus.lsq0.loadToUse::stdev  4383.851965                       # Distribution of cycle latency between the first time a load is issued and its completion (Unspecified)
system.switch_cpus.lsq0.loadToUse::0-9       54416674     48.44%     48.44% # Distribution of cycle latency between the first time a load is issued and its completion (Unspecified)
system.switch_cpus.lsq0.loadToUse::10-19        62177      0.06%     48.49% # Distribution of cycle latency between the first time a load is issued and its completion (Unspecified)
system.switch_cpus.lsq0.loadToUse::20-29        29258      0.03%     48.52% # Distribution of cycle latency between the first time a load is issued and its completion (Unspecified)
system.switch_cpus.lsq0.loadToUse::30-39        22483      0.02%     48.54% # Distribution of cycle latency between the first time a load is issued and its completion (Unspecified)
system.switch_cpus.lsq0.loadToUse::40-49        93839      0.08%     48.62% # Distribution of cycle latency between the first time a load is issued and its completion (Unspecified)
system.switch_cpus.lsq0.loadToUse::50-59        48534      0.04%     48.66% # Distribution of cycle latency between the first time a load is issued and its completion (Unspecified)
system.switch_cpus.lsq0.loadToUse::60-69        22783      0.02%     48.68% # Distribution of cycle latency between the first time a load is issued and its completion (Unspecified)
system.switch_cpus.lsq0.loadToUse::70-79        24928      0.02%     48.71% # Distribution of cycle latency between the first time a load is issued and its completion (Unspecified)
system.switch_cpus.lsq0.loadToUse::80-89        31285      0.03%     48.73% # Distribution of cycle latency between the first time a load is issued and its completion (Unspecified)
system.switch_cpus.lsq0.loadToUse::90-99        68340      0.06%     48.79% # Distribution of cycle latency between the first time a load is issued and its completion (Unspecified)
system.switch_cpus.lsq0.loadToUse::100-109       653880      0.58%     49.38% # Distribution of cycle latency between the first time a load is issued and its completion (Unspecified)
system.switch_cpus.lsq0.loadToUse::110-119       407233      0.36%     49.74% # Distribution of cycle latency between the first time a load is issued and its completion (Unspecified)
system.switch_cpus.lsq0.loadToUse::120-129       121274      0.11%     49.85% # Distribution of cycle latency between the first time a load is issued and its completion (Unspecified)
system.switch_cpus.lsq0.loadToUse::130-139       293748      0.26%     50.11% # Distribution of cycle latency between the first time a load is issued and its completion (Unspecified)
system.switch_cpus.lsq0.loadToUse::140-149       115743      0.10%     50.21% # Distribution of cycle latency between the first time a load is issued and its completion (Unspecified)
system.switch_cpus.lsq0.loadToUse::150-159       293335      0.26%     50.47% # Distribution of cycle latency between the first time a load is issued and its completion (Unspecified)
system.switch_cpus.lsq0.loadToUse::160-169       648077      0.58%     51.05% # Distribution of cycle latency between the first time a load is issued and its completion (Unspecified)
system.switch_cpus.lsq0.loadToUse::170-179       151819      0.14%     51.18% # Distribution of cycle latency between the first time a load is issued and its completion (Unspecified)
system.switch_cpus.lsq0.loadToUse::180-189        31527      0.03%     51.21% # Distribution of cycle latency between the first time a load is issued and its completion (Unspecified)
system.switch_cpus.lsq0.loadToUse::190-199        14000      0.01%     51.23% # Distribution of cycle latency between the first time a load is issued and its completion (Unspecified)
system.switch_cpus.lsq0.loadToUse::200-209        13521      0.01%     51.24% # Distribution of cycle latency between the first time a load is issued and its completion (Unspecified)
system.switch_cpus.lsq0.loadToUse::210-219        10521      0.01%     51.25% # Distribution of cycle latency between the first time a load is issued and its completion (Unspecified)
system.switch_cpus.lsq0.loadToUse::220-229        13620      0.01%     51.26% # Distribution of cycle latency between the first time a load is issued and its completion (Unspecified)
system.switch_cpus.lsq0.loadToUse::230-239        10031      0.01%     51.27% # Distribution of cycle latency between the first time a load is issued and its completion (Unspecified)
system.switch_cpus.lsq0.loadToUse::240-249        37051      0.03%     51.30% # Distribution of cycle latency between the first time a load is issued and its completion (Unspecified)
system.switch_cpus.lsq0.loadToUse::250-259        35084      0.03%     51.33% # Distribution of cycle latency between the first time a load is issued and its completion (Unspecified)
system.switch_cpus.lsq0.loadToUse::260-269        17237      0.02%     51.35% # Distribution of cycle latency between the first time a load is issued and its completion (Unspecified)
system.switch_cpus.lsq0.loadToUse::270-279        19675      0.02%     51.36% # Distribution of cycle latency between the first time a load is issued and its completion (Unspecified)
system.switch_cpus.lsq0.loadToUse::280-289        12593      0.01%     51.38% # Distribution of cycle latency between the first time a load is issued and its completion (Unspecified)
system.switch_cpus.lsq0.loadToUse::290-299        15475      0.01%     51.39% # Distribution of cycle latency between the first time a load is issued and its completion (Unspecified)
system.switch_cpus.lsq0.loadToUse::overflows     54613273     48.61%    100.00% # Distribution of cycle latency between the first time a load is issued and its completion (Unspecified)
system.switch_cpus.lsq0.loadToUse::min_value            2                       # Distribution of cycle latency between the first time a load is issued and its completion (Unspecified)
system.switch_cpus.lsq0.loadToUse::max_value        13081                       # Distribution of cycle latency between the first time a load is issued and its completion (Unspecified)
system.switch_cpus.lsq0.loadToUse::total    112349018                       # Distribution of cycle latency between the first time a load is issued and its completion (Unspecified)
system.switch_cpus.mmu.dtb.rdAccesses       168666810                       # TLB accesses on read requests (Count)
system.switch_cpus.mmu.dtb.wrAccesses        15852692                       # TLB accesses on write requests (Count)
system.switch_cpus.mmu.dtb.rdMisses          54942956                       # TLB misses on read requests (Count)
system.switch_cpus.mmu.dtb.wrMisses           1033921                       # TLB misses on write requests (Count)
system.switch_cpus.mmu.dtb.walker.power_state.pwrStateResidencyTicks::UNDEFINED 18602797374000                       # Cumulative time (in ticks) in various power states (Tick)
system.switch_cpus.mmu.itb.rdAccesses               0                       # TLB accesses on read requests (Count)
system.switch_cpus.mmu.itb.wrAccesses        13939820                       # TLB accesses on write requests (Count)
system.switch_cpus.mmu.itb.rdMisses                 0                       # TLB misses on read requests (Count)
system.switch_cpus.mmu.itb.wrMisses              7471                       # TLB misses on write requests (Count)
system.switch_cpus.mmu.itb.walker.power_state.pwrStateResidencyTicks::UNDEFINED 18602797374000                       # Cumulative time (in ticks) in various power states (Tick)
system.switch_cpus.power_state.numTransitions           48                       # Number of power state transitions (Count)
system.switch_cpus.power_state.ticksClkGated::samples           24                       # Distribution of time spent in the clock gated state (Tick)
system.switch_cpus.power_state.ticksClkGated::mean    481818375                       # Distribution of time spent in the clock gated state (Tick)
system.switch_cpus.power_state.ticksClkGated::stdev 466511725.584061                       # Distribution of time spent in the clock gated state (Tick)
system.switch_cpus.power_state.ticksClkGated::1000-5e+10           24    100.00%    100.00% # Distribution of time spent in the clock gated state (Tick)
system.switch_cpus.power_state.ticksClkGated::min_value      2629000                       # Distribution of time spent in the clock gated state (Tick)
system.switch_cpus.power_state.ticksClkGated::max_value    997602500                       # Distribution of time spent in the clock gated state (Tick)
system.switch_cpus.power_state.ticksClkGated::total           24                       # Distribution of time spent in the clock gated state (Tick)
system.switch_cpus.power_state.pwrStateResidencyTicks::ON 12494013918000                       # Cumulative time (in ticks) in various power states (Tick)
system.switch_cpus.power_state.pwrStateResidencyTicks::CLK_GATED  11563641000                       # Cumulative time (in ticks) in various power states (Tick)
system.switch_cpus.power_state.pwrStateResidencyTicks::OFF  10456887000                       # Cumulative time (in ticks) in various power states (Tick)
system.switch_cpus.rename.squashCycles         786424                       # Number of cycles rename is squashing (Cycle)
system.switch_cpus.rename.idleCycles        205622577                       # Number of cycles rename is idle (Cycle)
system.switch_cpus.rename.blockCycles     24269748292                       # Number of cycles rename is blocking (Cycle)
system.switch_cpus.rename.serializeStallCycles    207274162                       # count of cycles rename stalled for serializing inst (Cycle)
system.switch_cpus.rename.runCycles          68925691                       # Number of cycles rename is running (Cycle)
system.switch_cpus.rename.unblockCycles     189325339                       # Number of cycles rename is unblocking (Cycle)
system.switch_cpus.rename.renamedInsts      779264522                       # Number of instructions processed by rename (Count)
system.switch_cpus.rename.ROBFullEvents      62186655                       # Number of times rename has blocked due to ROB full (Count)
system.switch_cpus.rename.IQFullEvents       53592051                       # Number of times rename has blocked due to IQ full (Count)
system.switch_cpus.rename.LQFullEvents       20135861                       # Number of times rename has blocked due to LQ full (Count)
system.switch_cpus.rename.SQFullEvents       33263765                       # Number of times rename has blocked due to SQ full (Count)
system.switch_cpus.rename.fullRegistersEvents           63                       # Number of times there has been no free registers (Count)
system.switch_cpus.rename.renamedOperands   1294763475                       # Number of destination operands rename has renamed (Count)
system.switch_cpus.rename.lookups          2335251985                       # Number of register rename lookups that rename has made (Count)
system.switch_cpus.rename.intLookups        552251638                       # Number of integer rename lookups (Count)
system.switch_cpus.rename.fpLookups         615298084                       # Number of floating rename lookups (Count)
system.switch_cpus.rename.committedMaps    1264209127                       # Number of HB maps that are committed (Count)
system.switch_cpus.rename.undoneMaps         30554275                       # Number of HB maps that are undone due to squashing (Count)
system.switch_cpus.rename.serializing          958437                       # count of serializing insts renamed (Count)
system.switch_cpus.rename.tempSerializing       798310                       # count of temporary serializing insts renamed (Count)
system.switch_cpus.rename.skidInsts         416178957                       # count of insts added to the skid buffer (Count)
system.switch_cpus.rob.reads              25643475984                       # The number of ROB reads (Count)
system.switch_cpus.rob.writes              1554188079                       # The number of ROB writes (Count)
system.switch_cpus.thread_0.numInsts        338580001                       # Number of Instructions committed (Count)
system.switch_cpus.thread_0.numOps          759728118                       # Number of Ops committed (Count)
system.switch_cpus.thread_0.numMemRefs              0                       # Number of Memory References (Count)
system.voltage_domain.voltage                       1                       # Voltage in Volts (Volt)
system.workload.inst.arm                            0                       # number of arm instructions executed (Count)
system.workload.inst.quiesce                        0                       # number of quiesce instructions executed (Count)

---------- End Simulation Statistics   ----------
