
---------- Begin Simulation Statistics ----------
simSeconds                                   0.020519                       # Number of seconds simulated (Second)
simTicks                                  20518897000                       # Number of ticks simulated (Tick)
finalTick                                4716148698000                       # Number of ticks from beginning of simulation (restored from checkpoints and never reset) (Tick)
simFreq                                  1000000000000                       # The number of ticks per simulated second ((Tick/Second))
hostSeconds                                     33.68                       # Real time elapsed on the host (Second)
hostTickRate                                609211699                       # The number of ticks simulated per host second (ticks/s) ((Tick/Second))
hostMemory                                    1427580                       # Number of bytes of host memory used (Byte)
simInsts                                     10583759                       # Number of instructions simulated (Count)
simOps                                       23586374                       # Number of ops (including micro ops) simulated (Count)
hostInstRate                                   314230                       # Simulator instruction rate (inst/s) ((Count/Second))
hostOpRate                                     700274                       # Simulator op (including micro ops) rate (op/s) ((Count/Second))
system.apicbridge.power_state.pwrStateResidencyTicks::UNDEFINED 4716148698000                       # Cumulative time (in ticks) in various power states (Tick)
system.bridge.power_state.pwrStateResidencyTicks::UNDEFINED 4716148698000                       # Cumulative time (in ticks) in various power states (Tick)
system.clk_domain.clock                          1000                       # Clock period in ticks (Tick)
system.cpu0.numCycles                              22                       # Number of cpu cycles simulated (Cycle)
system.cpu0.cpi                              2.750000                       # CPI: cycles per instruction (core level) ((Cycle/Count))
system.cpu0.ipc                              0.363636                       # IPC: instructions per cycle (core level) ((Count/Cycle))
system.cpu0.numWorkItemsStarted                     0                       # Number of work items this cpu started (Count)
system.cpu0.numWorkItemsCompleted                   0                       # Number of work items this cpu completed (Count)
system.cpu0.commitStats0.numInsts                   8                       # Number of instructions committed (thread level) (Count)
system.cpu0.commitStats0.numOps                    19                       # Number of ops (including micro ops) committed (thread level) (Count)
system.cpu0.commitStats0.numInstsNotNOP             0                       # Number of instructions committed excluding NOPs or prefetches (Count)
system.cpu0.commitStats0.numOpsNotNOP               0                       # Number of Ops (including micro ops) Simulated (Count)
system.cpu0.commitStats0.cpi                 2.750000                       # CPI: cycles per instruction (thread level) ((Cycle/Count))
system.cpu0.commitStats0.ipc                 0.363636                       # IPC: instructions per cycle (thread level) ((Count/Cycle))
system.cpu0.commitStats0.numMemRefs                 0                       # Number of memory references committed (Count)
system.cpu0.commitStats0.numFpInsts                 0                       # Number of float instructions (Count)
system.cpu0.commitStats0.numIntInsts               19                       # Number of integer instructions (Count)
system.cpu0.commitStats0.numLoadInsts               3                       # Number of load instructions (Count)
system.cpu0.commitStats0.numStoreInsts              0                       # Number of store instructions (Count)
system.cpu0.commitStats0.numVecInsts                0                       # Number of vector instructions (Count)
system.cpu0.commitStats0.committedInstType::No_OpClass            0      0.00%      0.00% # Class of committed instruction. (Count)
system.cpu0.commitStats0.committedInstType::IntAlu           16     84.21%     84.21% # Class of committed instruction. (Count)
system.cpu0.commitStats0.committedInstType::IntMult            0      0.00%     84.21% # Class of committed instruction. (Count)
system.cpu0.commitStats0.committedInstType::ZeroMult            0      0.00%     84.21% # Class of committed instruction. (Count)
system.cpu0.commitStats0.committedInstType::IntDiv            0      0.00%     84.21% # Class of committed instruction. (Count)
system.cpu0.commitStats0.committedInstType::FloatAdd            0      0.00%     84.21% # Class of committed instruction. (Count)
system.cpu0.commitStats0.committedInstType::FloatCmp            0      0.00%     84.21% # Class of committed instruction. (Count)
system.cpu0.commitStats0.committedInstType::FloatCvt            0      0.00%     84.21% # Class of committed instruction. (Count)
system.cpu0.commitStats0.committedInstType::FloatMult            0      0.00%     84.21% # Class of committed instruction. (Count)
system.cpu0.commitStats0.committedInstType::FloatMultAcc            0      0.00%     84.21% # Class of committed instruction. (Count)
system.cpu0.commitStats0.committedInstType::FloatDiv            0      0.00%     84.21% # Class of committed instruction. (Count)
system.cpu0.commitStats0.committedInstType::FloatMisc            0      0.00%     84.21% # Class of committed instruction. (Count)
system.cpu0.commitStats0.committedInstType::FloatSqrt            0      0.00%     84.21% # Class of committed instruction. (Count)
system.cpu0.commitStats0.committedInstType::SimdAdd            0      0.00%     84.21% # Class of committed instruction. (Count)
system.cpu0.commitStats0.committedInstType::SimdAddAcc            0      0.00%     84.21% # Class of committed instruction. (Count)
system.cpu0.commitStats0.committedInstType::SimdAlu            0      0.00%     84.21% # Class of committed instruction. (Count)
system.cpu0.commitStats0.committedInstType::SimdCmp            0      0.00%     84.21% # Class of committed instruction. (Count)
system.cpu0.commitStats0.committedInstType::SimdCvt            0      0.00%     84.21% # Class of committed instruction. (Count)
system.cpu0.commitStats0.committedInstType::SimdMisc            0      0.00%     84.21% # Class of committed instruction. (Count)
system.cpu0.commitStats0.committedInstType::SimdMult            0      0.00%     84.21% # Class of committed instruction. (Count)
system.cpu0.commitStats0.committedInstType::SimdMultAcc            0      0.00%     84.21% # Class of committed instruction. (Count)
system.cpu0.commitStats0.committedInstType::SimdMatMultAcc            0      0.00%     84.21% # Class of committed instruction. (Count)
system.cpu0.commitStats0.committedInstType::SimdShift            0      0.00%     84.21% # Class of committed instruction. (Count)
system.cpu0.commitStats0.committedInstType::SimdShiftAcc            0      0.00%     84.21% # Class of committed instruction. (Count)
system.cpu0.commitStats0.committedInstType::SimdDiv            0      0.00%     84.21% # Class of committed instruction. (Count)
system.cpu0.commitStats0.committedInstType::SimdSqrt            0      0.00%     84.21% # Class of committed instruction. (Count)
system.cpu0.commitStats0.committedInstType::SimdFloatAdd            0      0.00%     84.21% # Class of committed instruction. (Count)
system.cpu0.commitStats0.committedInstType::SimdFloatAlu            0      0.00%     84.21% # Class of committed instruction. (Count)
system.cpu0.commitStats0.committedInstType::SimdFloatCmp            0      0.00%     84.21% # Class of committed instruction. (Count)
system.cpu0.commitStats0.committedInstType::SimdFloatCvt            0      0.00%     84.21% # Class of committed instruction. (Count)
system.cpu0.commitStats0.committedInstType::SimdFloatDiv            0      0.00%     84.21% # Class of committed instruction. (Count)
system.cpu0.commitStats0.committedInstType::SimdFloatMisc            0      0.00%     84.21% # Class of committed instruction. (Count)
system.cpu0.commitStats0.committedInstType::SimdFloatMult            0      0.00%     84.21% # Class of committed instruction. (Count)
system.cpu0.commitStats0.committedInstType::SimdFloatMultAcc            0      0.00%     84.21% # Class of committed instruction. (Count)
system.cpu0.commitStats0.committedInstType::SimdFloatMatMultAcc            0      0.00%     84.21% # Class of committed instruction. (Count)
system.cpu0.commitStats0.committedInstType::SimdFloatSqrt            0      0.00%     84.21% # Class of committed instruction. (Count)
system.cpu0.commitStats0.committedInstType::SimdReduceAdd            0      0.00%     84.21% # Class of committed instruction. (Count)
system.cpu0.commitStats0.committedInstType::SimdReduceAlu            0      0.00%     84.21% # Class of committed instruction. (Count)
system.cpu0.commitStats0.committedInstType::SimdReduceCmp            0      0.00%     84.21% # Class of committed instruction. (Count)
system.cpu0.commitStats0.committedInstType::SimdFloatReduceAdd            0      0.00%     84.21% # Class of committed instruction. (Count)
system.cpu0.commitStats0.committedInstType::SimdFloatReduceCmp            0      0.00%     84.21% # Class of committed instruction. (Count)
system.cpu0.commitStats0.committedInstType::SimdAes            0      0.00%     84.21% # Class of committed instruction. (Count)
system.cpu0.commitStats0.committedInstType::SimdAesMix            0      0.00%     84.21% # Class of committed instruction. (Count)
system.cpu0.commitStats0.committedInstType::SimdSha1Hash            0      0.00%     84.21% # Class of committed instruction. (Count)
system.cpu0.commitStats0.committedInstType::SimdSha1Hash2            0      0.00%     84.21% # Class of committed instruction. (Count)
system.cpu0.commitStats0.committedInstType::SimdSha256Hash            0      0.00%     84.21% # Class of committed instruction. (Count)
system.cpu0.commitStats0.committedInstType::SimdSha256Hash2            0      0.00%     84.21% # Class of committed instruction. (Count)
system.cpu0.commitStats0.committedInstType::SimdShaSigma2            0      0.00%     84.21% # Class of committed instruction. (Count)
system.cpu0.commitStats0.committedInstType::SimdShaSigma3            0      0.00%     84.21% # Class of committed instruction. (Count)
system.cpu0.commitStats0.committedInstType::SimdPredAlu            0      0.00%     84.21% # Class of committed instruction. (Count)
system.cpu0.commitStats0.committedInstType::Matrix            0      0.00%     84.21% # Class of committed instruction. (Count)
system.cpu0.commitStats0.committedInstType::MatrixMov            0      0.00%     84.21% # Class of committed instruction. (Count)
system.cpu0.commitStats0.committedInstType::MatrixOP            0      0.00%     84.21% # Class of committed instruction. (Count)
system.cpu0.commitStats0.committedInstType::MemRead            3     15.79%    100.00% # Class of committed instruction. (Count)
system.cpu0.commitStats0.committedInstType::MemWrite            0      0.00%    100.00% # Class of committed instruction. (Count)
system.cpu0.commitStats0.committedInstType::FloatMemRead            0      0.00%    100.00% # Class of committed instruction. (Count)
system.cpu0.commitStats0.committedInstType::FloatMemWrite            0      0.00%    100.00% # Class of committed instruction. (Count)
system.cpu0.commitStats0.committedInstType::IprAccess            0      0.00%    100.00% # Class of committed instruction. (Count)
system.cpu0.commitStats0.committedInstType::InstPrefetch            0      0.00%    100.00% # Class of committed instruction. (Count)
system.cpu0.commitStats0.committedInstType::VectorUnitStrideLoad            0      0.00%    100.00% # Class of committed instruction. (Count)
system.cpu0.commitStats0.committedInstType::VectorUnitStrideStore            0      0.00%    100.00% # Class of committed instruction. (Count)
system.cpu0.commitStats0.committedInstType::VectorUnitStrideMaskLoad            0      0.00%    100.00% # Class of committed instruction. (Count)
system.cpu0.commitStats0.committedInstType::VectorUnitStrideMaskStore            0      0.00%    100.00% # Class of committed instruction. (Count)
system.cpu0.commitStats0.committedInstType::VectorStridedLoad            0      0.00%    100.00% # Class of committed instruction. (Count)
system.cpu0.commitStats0.committedInstType::VectorStridedStore            0      0.00%    100.00% # Class of committed instruction. (Count)
system.cpu0.commitStats0.committedInstType::VectorIndexedLoad            0      0.00%    100.00% # Class of committed instruction. (Count)
system.cpu0.commitStats0.committedInstType::VectorIndexedStore            0      0.00%    100.00% # Class of committed instruction. (Count)
system.cpu0.commitStats0.committedInstType::VectorUnitStrideFaultOnlyFirstLoad            0      0.00%    100.00% # Class of committed instruction. (Count)
system.cpu0.commitStats0.committedInstType::VectorWholeRegisterLoad            0      0.00%    100.00% # Class of committed instruction. (Count)
system.cpu0.commitStats0.committedInstType::VectorWholeRegisterStore            0      0.00%    100.00% # Class of committed instruction. (Count)
system.cpu0.commitStats0.committedInstType::VectorIntegerArith            0      0.00%    100.00% # Class of committed instruction. (Count)
system.cpu0.commitStats0.committedInstType::VectorFloatArith            0      0.00%    100.00% # Class of committed instruction. (Count)
system.cpu0.commitStats0.committedInstType::VectorFloatConvert            0      0.00%    100.00% # Class of committed instruction. (Count)
system.cpu0.commitStats0.committedInstType::VectorIntegerReduce            0      0.00%    100.00% # Class of committed instruction. (Count)
system.cpu0.commitStats0.committedInstType::VectorFloatReduce            0      0.00%    100.00% # Class of committed instruction. (Count)
system.cpu0.commitStats0.committedInstType::VectorMisc            0      0.00%    100.00% # Class of committed instruction. (Count)
system.cpu0.commitStats0.committedInstType::VectorIntegerExtension            0      0.00%    100.00% # Class of committed instruction. (Count)
system.cpu0.commitStats0.committedInstType::VectorConfig            0      0.00%    100.00% # Class of committed instruction. (Count)
system.cpu0.commitStats0.committedInstType::total           19                       # Class of committed instruction. (Count)
system.cpu0.commitStats0.committedControl::IsControl            4                       # Class of control type instructions committed (Count)
system.cpu0.commitStats0.committedControl::IsDirectControl            3                       # Class of control type instructions committed (Count)
system.cpu0.commitStats0.committedControl::IsIndirectControl            1                       # Class of control type instructions committed (Count)
system.cpu0.commitStats0.committedControl::IsCondControl            1                       # Class of control type instructions committed (Count)
system.cpu0.commitStats0.committedControl::IsUncondControl            3                       # Class of control type instructions committed (Count)
system.cpu0.commitStats0.committedControl::IsReturn            1                       # Class of control type instructions committed (Count)
system.cpu0.dcache.demandHits::switch_cpus0.data       276903                       # number of demand (read+write) hits (Count)
system.cpu0.dcache.demandHits::total           276903                       # number of demand (read+write) hits (Count)
system.cpu0.dcache.overallHits::switch_cpus0.data       276971                       # number of overall hits (Count)
system.cpu0.dcache.overallHits::total          276971                       # number of overall hits (Count)
system.cpu0.dcache.demandMisses::cpu0.data            3                       # number of demand (read+write) misses (Count)
system.cpu0.dcache.demandMisses::switch_cpus0.data        14980                       # number of demand (read+write) misses (Count)
system.cpu0.dcache.demandMisses::total          14983                       # number of demand (read+write) misses (Count)
system.cpu0.dcache.overallMisses::cpu0.data            3                       # number of overall misses (Count)
system.cpu0.dcache.overallMisses::switch_cpus0.data        15176                       # number of overall misses (Count)
system.cpu0.dcache.overallMisses::total         15179                       # number of overall misses (Count)
system.cpu0.dcache.demandMissLatency::switch_cpus0.data   1014559500                       # number of demand (read+write) miss ticks (Tick)
system.cpu0.dcache.demandMissLatency::total   1014559500                       # number of demand (read+write) miss ticks (Tick)
system.cpu0.dcache.overallMissLatency::switch_cpus0.data   1014559500                       # number of overall miss ticks (Tick)
system.cpu0.dcache.overallMissLatency::total   1014559500                       # number of overall miss ticks (Tick)
system.cpu0.dcache.demandAccesses::cpu0.data            3                       # number of demand (read+write) accesses (Count)
system.cpu0.dcache.demandAccesses::switch_cpus0.data       291883                       # number of demand (read+write) accesses (Count)
system.cpu0.dcache.demandAccesses::total       291886                       # number of demand (read+write) accesses (Count)
system.cpu0.dcache.overallAccesses::cpu0.data            3                       # number of overall (read+write) accesses (Count)
system.cpu0.dcache.overallAccesses::switch_cpus0.data       292147                       # number of overall (read+write) accesses (Count)
system.cpu0.dcache.overallAccesses::total       292150                       # number of overall (read+write) accesses (Count)
system.cpu0.dcache.demandMissRate::cpu0.data            1                       # miss rate for demand accesses (Ratio)
system.cpu0.dcache.demandMissRate::switch_cpus0.data     0.051322                       # miss rate for demand accesses (Ratio)
system.cpu0.dcache.demandMissRate::total     0.051332                       # miss rate for demand accesses (Ratio)
system.cpu0.dcache.overallMissRate::cpu0.data            1                       # miss rate for overall accesses (Ratio)
system.cpu0.dcache.overallMissRate::switch_cpus0.data     0.051946                       # miss rate for overall accesses (Ratio)
system.cpu0.dcache.overallMissRate::total     0.051956                       # miss rate for overall accesses (Ratio)
system.cpu0.dcache.demandAvgMissLatency::switch_cpus0.data 67727.603471                       # average overall miss latency in ticks ((Tick/Count))
system.cpu0.dcache.demandAvgMissLatency::total 67714.042582                       # average overall miss latency in ticks ((Tick/Count))
system.cpu0.dcache.overallAvgMissLatency::switch_cpus0.data 66852.892725                       # average overall miss latency ((Tick/Count))
system.cpu0.dcache.overallAvgMissLatency::total 66839.679821                       # average overall miss latency ((Tick/Count))
system.cpu0.dcache.blockedCycles::no_mshrs         3657                       # number of cycles access was blocked (Cycle)
system.cpu0.dcache.blockedCycles::no_targets          553                       # number of cycles access was blocked (Cycle)
system.cpu0.dcache.blockedCauses::no_mshrs           79                       # number of times access was blocked (Count)
system.cpu0.dcache.blockedCauses::no_targets            7                       # number of times access was blocked (Count)
system.cpu0.dcache.avgBlocked::no_mshrs     46.291139                       # average number of cycles each access was blocked ((Cycle/Count))
system.cpu0.dcache.avgBlocked::no_targets           79                       # average number of cycles each access was blocked ((Cycle/Count))
system.cpu0.dcache.writebacks::writebacks         6351                       # number of writebacks (Count)
system.cpu0.dcache.writebacks::total             6351                       # number of writebacks (Count)
system.cpu0.dcache.demandMshrHits::switch_cpus0.data         3450                       # number of demand (read+write) MSHR hits (Count)
system.cpu0.dcache.demandMshrHits::total         3450                       # number of demand (read+write) MSHR hits (Count)
system.cpu0.dcache.overallMshrHits::switch_cpus0.data         3450                       # number of overall MSHR hits (Count)
system.cpu0.dcache.overallMshrHits::total         3450                       # number of overall MSHR hits (Count)
system.cpu0.dcache.demandMshrMisses::switch_cpus0.data        11530                       # number of demand (read+write) MSHR misses (Count)
system.cpu0.dcache.demandMshrMisses::total        11530                       # number of demand (read+write) MSHR misses (Count)
system.cpu0.dcache.overallMshrMisses::switch_cpus0.data        11726                       # number of overall MSHR misses (Count)
system.cpu0.dcache.overallMshrMisses::total        11726                       # number of overall MSHR misses (Count)
system.cpu0.dcache.overallMshrUncacheable::switch_cpus0.data           32                       # number of overall MSHR uncacheable misses (Count)
system.cpu0.dcache.overallMshrUncacheable::total           32                       # number of overall MSHR uncacheable misses (Count)
system.cpu0.dcache.demandMshrMissLatency::switch_cpus0.data    798635500                       # number of demand (read+write) MSHR miss ticks (Tick)
system.cpu0.dcache.demandMshrMissLatency::total    798635500                       # number of demand (read+write) MSHR miss ticks (Tick)
system.cpu0.dcache.overallMshrMissLatency::switch_cpus0.data    813294500                       # number of overall MSHR miss ticks (Tick)
system.cpu0.dcache.overallMshrMissLatency::total    813294500                       # number of overall MSHR miss ticks (Tick)
system.cpu0.dcache.overallMshrUncacheableLatency::switch_cpus0.data       333000                       # number of overall MSHR uncacheable ticks (Tick)
system.cpu0.dcache.overallMshrUncacheableLatency::total       333000                       # number of overall MSHR uncacheable ticks (Tick)
system.cpu0.dcache.demandMshrMissRate::switch_cpus0.data     0.039502                       # mshr miss ratio for demand accesses (Ratio)
system.cpu0.dcache.demandMshrMissRate::total     0.039502                       # mshr miss ratio for demand accesses (Ratio)
system.cpu0.dcache.overallMshrMissRate::switch_cpus0.data     0.040137                       # mshr miss ratio for overall accesses (Ratio)
system.cpu0.dcache.overallMshrMissRate::total     0.040137                       # mshr miss ratio for overall accesses (Ratio)
system.cpu0.dcache.demandAvgMshrMissLatency::switch_cpus0.data 69265.871639                       # average overall mshr miss latency ((Tick/Count))
system.cpu0.dcache.demandAvgMshrMissLatency::total 69265.871639                       # average overall mshr miss latency ((Tick/Count))
system.cpu0.dcache.overallAvgMshrMissLatency::switch_cpus0.data 69358.221047                       # average overall mshr miss latency ((Tick/Count))
system.cpu0.dcache.overallAvgMshrMissLatency::total 69358.221047                       # average overall mshr miss latency ((Tick/Count))
system.cpu0.dcache.overallAvgMshrUncacheableLatency::switch_cpus0.data 10406.250000                       # average overall mshr uncacheable latency ((Tick/Count))
system.cpu0.dcache.overallAvgMshrUncacheableLatency::total 10406.250000                       # average overall mshr uncacheable latency ((Tick/Count))
system.cpu0.dcache.replacements                 10174                       # number of replacements (Count)
system.cpu0.dcache.LockedRMWReadReq.hits::switch_cpus0.data         1912                       # number of LockedRMWReadReq hits (Count)
system.cpu0.dcache.LockedRMWReadReq.hits::total         1912                       # number of LockedRMWReadReq hits (Count)
system.cpu0.dcache.LockedRMWReadReq.misses::switch_cpus0.data          357                       # number of LockedRMWReadReq misses (Count)
system.cpu0.dcache.LockedRMWReadReq.misses::total          357                       # number of LockedRMWReadReq misses (Count)
system.cpu0.dcache.LockedRMWReadReq.missLatency::switch_cpus0.data     18608000                       # number of LockedRMWReadReq miss ticks (Tick)
system.cpu0.dcache.LockedRMWReadReq.missLatency::total     18608000                       # number of LockedRMWReadReq miss ticks (Tick)
system.cpu0.dcache.LockedRMWReadReq.accesses::switch_cpus0.data         2269                       # number of LockedRMWReadReq accesses(hits+misses) (Count)
system.cpu0.dcache.LockedRMWReadReq.accesses::total         2269                       # number of LockedRMWReadReq accesses(hits+misses) (Count)
system.cpu0.dcache.LockedRMWReadReq.missRate::switch_cpus0.data     0.157338                       # miss rate for LockedRMWReadReq accesses (Ratio)
system.cpu0.dcache.LockedRMWReadReq.missRate::total     0.157338                       # miss rate for LockedRMWReadReq accesses (Ratio)
system.cpu0.dcache.LockedRMWReadReq.avgMissLatency::switch_cpus0.data 52123.249300                       # average LockedRMWReadReq miss latency ((Tick/Count))
system.cpu0.dcache.LockedRMWReadReq.avgMissLatency::total 52123.249300                       # average LockedRMWReadReq miss latency ((Tick/Count))
system.cpu0.dcache.LockedRMWReadReq.mshrMisses::switch_cpus0.data          357                       # number of LockedRMWReadReq MSHR misses (Count)
system.cpu0.dcache.LockedRMWReadReq.mshrMisses::total          357                       # number of LockedRMWReadReq MSHR misses (Count)
system.cpu0.dcache.LockedRMWReadReq.mshrMissLatency::switch_cpus0.data     46146000                       # number of LockedRMWReadReq MSHR miss ticks (Tick)
system.cpu0.dcache.LockedRMWReadReq.mshrMissLatency::total     46146000                       # number of LockedRMWReadReq MSHR miss ticks (Tick)
system.cpu0.dcache.LockedRMWReadReq.mshrMissRate::switch_cpus0.data     0.157338                       # mshr miss rate for LockedRMWReadReq accesses (Ratio)
system.cpu0.dcache.LockedRMWReadReq.mshrMissRate::total     0.157338                       # mshr miss rate for LockedRMWReadReq accesses (Ratio)
system.cpu0.dcache.LockedRMWReadReq.avgMshrMissLatency::switch_cpus0.data 129260.504202                       # average LockedRMWReadReq mshr miss latency ((Tick/Count))
system.cpu0.dcache.LockedRMWReadReq.avgMshrMissLatency::total 129260.504202                       # average LockedRMWReadReq mshr miss latency ((Tick/Count))
system.cpu0.dcache.LockedRMWWriteReq.hits::switch_cpus0.data         2269                       # number of LockedRMWWriteReq hits (Count)
system.cpu0.dcache.LockedRMWWriteReq.hits::total         2269                       # number of LockedRMWWriteReq hits (Count)
system.cpu0.dcache.LockedRMWWriteReq.accesses::switch_cpus0.data         2269                       # number of LockedRMWWriteReq accesses(hits+misses) (Count)
system.cpu0.dcache.LockedRMWWriteReq.accesses::total         2269                       # number of LockedRMWWriteReq accesses(hits+misses) (Count)
system.cpu0.dcache.ReadReq.hits::switch_cpus0.data       144520                       # number of ReadReq hits (Count)
system.cpu0.dcache.ReadReq.hits::total         144520                       # number of ReadReq hits (Count)
system.cpu0.dcache.ReadReq.misses::cpu0.data            3                       # number of ReadReq misses (Count)
system.cpu0.dcache.ReadReq.misses::switch_cpus0.data         9354                       # number of ReadReq misses (Count)
system.cpu0.dcache.ReadReq.misses::total         9357                       # number of ReadReq misses (Count)
system.cpu0.dcache.ReadReq.missLatency::switch_cpus0.data    650794000                       # number of ReadReq miss ticks (Tick)
system.cpu0.dcache.ReadReq.missLatency::total    650794000                       # number of ReadReq miss ticks (Tick)
system.cpu0.dcache.ReadReq.accesses::cpu0.data            3                       # number of ReadReq accesses(hits+misses) (Count)
system.cpu0.dcache.ReadReq.accesses::switch_cpus0.data       153874                       # number of ReadReq accesses(hits+misses) (Count)
system.cpu0.dcache.ReadReq.accesses::total       153877                       # number of ReadReq accesses(hits+misses) (Count)
system.cpu0.dcache.ReadReq.missRate::cpu0.data            1                       # miss rate for ReadReq accesses (Ratio)
system.cpu0.dcache.ReadReq.missRate::switch_cpus0.data     0.060790                       # miss rate for ReadReq accesses (Ratio)
system.cpu0.dcache.ReadReq.missRate::total     0.060808                       # miss rate for ReadReq accesses (Ratio)
system.cpu0.dcache.ReadReq.avgMissLatency::switch_cpus0.data 69573.872140                       # average ReadReq miss latency ((Tick/Count))
system.cpu0.dcache.ReadReq.avgMissLatency::total 69551.565673                       # average ReadReq miss latency ((Tick/Count))
system.cpu0.dcache.ReadReq.mshrHits::switch_cpus0.data         3349                       # number of ReadReq MSHR hits (Count)
system.cpu0.dcache.ReadReq.mshrHits::total         3349                       # number of ReadReq MSHR hits (Count)
system.cpu0.dcache.ReadReq.mshrMisses::switch_cpus0.data         6005                       # number of ReadReq MSHR misses (Count)
system.cpu0.dcache.ReadReq.mshrMisses::total         6005                       # number of ReadReq MSHR misses (Count)
system.cpu0.dcache.ReadReq.mshrUncacheable::switch_cpus0.data            3                       # number of ReadReq MSHR uncacheable (Count)
system.cpu0.dcache.ReadReq.mshrUncacheable::total            3                       # number of ReadReq MSHR uncacheable (Count)
system.cpu0.dcache.ReadReq.mshrMissLatency::switch_cpus0.data    445273000                       # number of ReadReq MSHR miss ticks (Tick)
system.cpu0.dcache.ReadReq.mshrMissLatency::total    445273000                       # number of ReadReq MSHR miss ticks (Tick)
system.cpu0.dcache.ReadReq.mshrUncacheableLatency::switch_cpus0.data       333000                       # number of ReadReq MSHR uncacheable ticks (Tick)
system.cpu0.dcache.ReadReq.mshrUncacheableLatency::total       333000                       # number of ReadReq MSHR uncacheable ticks (Tick)
system.cpu0.dcache.ReadReq.mshrMissRate::switch_cpus0.data     0.039025                       # mshr miss rate for ReadReq accesses (Ratio)
system.cpu0.dcache.ReadReq.mshrMissRate::total     0.039025                       # mshr miss rate for ReadReq accesses (Ratio)
system.cpu0.dcache.ReadReq.avgMshrMissLatency::switch_cpus0.data 74150.374688                       # average ReadReq mshr miss latency ((Tick/Count))
system.cpu0.dcache.ReadReq.avgMshrMissLatency::total 74150.374688                       # average ReadReq mshr miss latency ((Tick/Count))
system.cpu0.dcache.ReadReq.avgMshrUncacheableLatency::switch_cpus0.data       111000                       # average ReadReq mshr uncacheable latency ((Tick/Count))
system.cpu0.dcache.ReadReq.avgMshrUncacheableLatency::total       111000                       # average ReadReq mshr uncacheable latency ((Tick/Count))
system.cpu0.dcache.SoftPFReq.hits::switch_cpus0.data           68                       # number of SoftPFReq hits (Count)
system.cpu0.dcache.SoftPFReq.hits::total           68                       # number of SoftPFReq hits (Count)
system.cpu0.dcache.SoftPFReq.misses::switch_cpus0.data          196                       # number of SoftPFReq misses (Count)
system.cpu0.dcache.SoftPFReq.misses::total          196                       # number of SoftPFReq misses (Count)
system.cpu0.dcache.SoftPFReq.accesses::switch_cpus0.data          264                       # number of SoftPFReq accesses(hits+misses) (Count)
system.cpu0.dcache.SoftPFReq.accesses::total          264                       # number of SoftPFReq accesses(hits+misses) (Count)
system.cpu0.dcache.SoftPFReq.missRate::switch_cpus0.data     0.742424                       # miss rate for SoftPFReq accesses (Ratio)
system.cpu0.dcache.SoftPFReq.missRate::total     0.742424                       # miss rate for SoftPFReq accesses (Ratio)
system.cpu0.dcache.SoftPFReq.mshrMisses::switch_cpus0.data          196                       # number of SoftPFReq MSHR misses (Count)
system.cpu0.dcache.SoftPFReq.mshrMisses::total          196                       # number of SoftPFReq MSHR misses (Count)
system.cpu0.dcache.SoftPFReq.mshrMissLatency::switch_cpus0.data     14659000                       # number of SoftPFReq MSHR miss ticks (Tick)
system.cpu0.dcache.SoftPFReq.mshrMissLatency::total     14659000                       # number of SoftPFReq MSHR miss ticks (Tick)
system.cpu0.dcache.SoftPFReq.mshrMissRate::switch_cpus0.data     0.742424                       # mshr miss rate for SoftPFReq accesses (Ratio)
system.cpu0.dcache.SoftPFReq.mshrMissRate::total     0.742424                       # mshr miss rate for SoftPFReq accesses (Ratio)
system.cpu0.dcache.SoftPFReq.avgMshrMissLatency::switch_cpus0.data 74790.816327                       # average SoftPFReq mshr miss latency ((Tick/Count))
system.cpu0.dcache.SoftPFReq.avgMshrMissLatency::total 74790.816327                       # average SoftPFReq mshr miss latency ((Tick/Count))
system.cpu0.dcache.WriteReq.hits::switch_cpus0.data       132383                       # number of WriteReq hits (Count)
system.cpu0.dcache.WriteReq.hits::total        132383                       # number of WriteReq hits (Count)
system.cpu0.dcache.WriteReq.misses::switch_cpus0.data         5626                       # number of WriteReq misses (Count)
system.cpu0.dcache.WriteReq.misses::total         5626                       # number of WriteReq misses (Count)
system.cpu0.dcache.WriteReq.missLatency::switch_cpus0.data    363765500                       # number of WriteReq miss ticks (Tick)
system.cpu0.dcache.WriteReq.missLatency::total    363765500                       # number of WriteReq miss ticks (Tick)
system.cpu0.dcache.WriteReq.accesses::switch_cpus0.data       138009                       # number of WriteReq accesses(hits+misses) (Count)
system.cpu0.dcache.WriteReq.accesses::total       138009                       # number of WriteReq accesses(hits+misses) (Count)
system.cpu0.dcache.WriteReq.missRate::switch_cpus0.data     0.040765                       # miss rate for WriteReq accesses (Ratio)
system.cpu0.dcache.WriteReq.missRate::total     0.040765                       # miss rate for WriteReq accesses (Ratio)
system.cpu0.dcache.WriteReq.avgMissLatency::switch_cpus0.data 64657.927480                       # average WriteReq miss latency ((Tick/Count))
system.cpu0.dcache.WriteReq.avgMissLatency::total 64657.927480                       # average WriteReq miss latency ((Tick/Count))
system.cpu0.dcache.WriteReq.mshrHits::switch_cpus0.data          101                       # number of WriteReq MSHR hits (Count)
system.cpu0.dcache.WriteReq.mshrHits::total          101                       # number of WriteReq MSHR hits (Count)
system.cpu0.dcache.WriteReq.mshrMisses::switch_cpus0.data         5525                       # number of WriteReq MSHR misses (Count)
system.cpu0.dcache.WriteReq.mshrMisses::total         5525                       # number of WriteReq MSHR misses (Count)
system.cpu0.dcache.WriteReq.mshrUncacheable::switch_cpus0.data           29                       # number of WriteReq MSHR uncacheable (Count)
system.cpu0.dcache.WriteReq.mshrUncacheable::total           29                       # number of WriteReq MSHR uncacheable (Count)
system.cpu0.dcache.WriteReq.mshrMissLatency::switch_cpus0.data    353362500                       # number of WriteReq MSHR miss ticks (Tick)
system.cpu0.dcache.WriteReq.mshrMissLatency::total    353362500                       # number of WriteReq MSHR miss ticks (Tick)
system.cpu0.dcache.WriteReq.mshrMissRate::switch_cpus0.data     0.040034                       # mshr miss rate for WriteReq accesses (Ratio)
system.cpu0.dcache.WriteReq.mshrMissRate::total     0.040034                       # mshr miss rate for WriteReq accesses (Ratio)
system.cpu0.dcache.WriteReq.avgMshrMissLatency::switch_cpus0.data 63957.013575                       # average WriteReq mshr miss latency ((Tick/Count))
system.cpu0.dcache.WriteReq.avgMshrMissLatency::total 63957.013575                       # average WriteReq mshr miss latency ((Tick/Count))
system.cpu0.dcache.power_state.pwrStateResidencyTicks::UNDEFINED 4716148698000                       # Cumulative time (in ticks) in various power states (Tick)
system.cpu0.dcache.tags.tagsInUse          330.577355                       # Average ticks per tags in use ((Tick/Count))
system.cpu0.dcache.tags.totalRefs              293252                       # Total number of references to valid blocks. (Count)
system.cpu0.dcache.tags.sampledRefs             11769                       # Sample count of references to valid blocks. (Count)
system.cpu0.dcache.tags.avgRefs             24.917325                       # Average number of references to valid blocks. ((Count/Count))
system.cpu0.dcache.tags.warmupTick       4695629803500                       # The tick when the warmup percentage was hit. (Tick)
system.cpu0.dcache.tags.occupancies::cpu0.data     2.354688                       # Average occupied blocks per tick, per requestor ((Count/Tick))
system.cpu0.dcache.tags.occupancies::switch_cpus0.data   328.222667                       # Average occupied blocks per tick, per requestor ((Count/Tick))
system.cpu0.dcache.tags.avgOccs::cpu0.data     0.002299                       # Average percentage of cache occupancy ((Ratio/Tick))
system.cpu0.dcache.tags.avgOccs::switch_cpus0.data     0.320530                       # Average percentage of cache occupancy ((Ratio/Tick))
system.cpu0.dcache.tags.avgOccs::total       0.322829                       # Average percentage of cache occupancy ((Ratio/Tick))
system.cpu0.dcache.tags.occupanciesTaskId::1024          633                       # Occupied blocks per task id (Count)
system.cpu0.dcache.tags.ageTaskId_1024::2          123                       # Occupied blocks per task id, per block age (Count)
system.cpu0.dcache.tags.ageTaskId_1024::3          509                       # Occupied blocks per task id, per block age (Count)
system.cpu0.dcache.tags.ageTaskId_1024::4            1                       # Occupied blocks per task id, per block age (Count)
system.cpu0.dcache.tags.ratioOccsTaskId::1024     0.618164                       # Ratio of occupied blocks and all blocks, per task id (Ratio)
system.cpu0.dcache.tags.tagAccesses            605145                       # Number of tag accesses (Count)
system.cpu0.dcache.tags.dataAccesses           605145                       # Number of data accesses (Count)
system.cpu0.dcache.tags.power_state.pwrStateResidencyTicks::UNDEFINED 4716148698000                       # Cumulative time (in ticks) in various power states (Tick)
system.cpu0.dtb_walker_cache.demandHits::switch_cpus0.mmu.dtb.walker         6550                       # number of demand (read+write) hits (Count)
system.cpu0.dtb_walker_cache.demandHits::total         6550                       # number of demand (read+write) hits (Count)
system.cpu0.dtb_walker_cache.overallHits::switch_cpus0.mmu.dtb.walker         6550                       # number of overall hits (Count)
system.cpu0.dtb_walker_cache.overallHits::total         6550                       # number of overall hits (Count)
system.cpu0.dtb_walker_cache.demandMisses::switch_cpus0.mmu.dtb.walker         1469                       # number of demand (read+write) misses (Count)
system.cpu0.dtb_walker_cache.demandMisses::total         1469                       # number of demand (read+write) misses (Count)
system.cpu0.dtb_walker_cache.overallMisses::switch_cpus0.mmu.dtb.walker         1469                       # number of overall misses (Count)
system.cpu0.dtb_walker_cache.overallMisses::total         1469                       # number of overall misses (Count)
system.cpu0.dtb_walker_cache.demandMissLatency::switch_cpus0.mmu.dtb.walker    110328500                       # number of demand (read+write) miss ticks (Tick)
system.cpu0.dtb_walker_cache.demandMissLatency::total    110328500                       # number of demand (read+write) miss ticks (Tick)
system.cpu0.dtb_walker_cache.overallMissLatency::switch_cpus0.mmu.dtb.walker    110328500                       # number of overall miss ticks (Tick)
system.cpu0.dtb_walker_cache.overallMissLatency::total    110328500                       # number of overall miss ticks (Tick)
system.cpu0.dtb_walker_cache.demandAccesses::switch_cpus0.mmu.dtb.walker         8019                       # number of demand (read+write) accesses (Count)
system.cpu0.dtb_walker_cache.demandAccesses::total         8019                       # number of demand (read+write) accesses (Count)
system.cpu0.dtb_walker_cache.overallAccesses::switch_cpus0.mmu.dtb.walker         8019                       # number of overall (read+write) accesses (Count)
system.cpu0.dtb_walker_cache.overallAccesses::total         8019                       # number of overall (read+write) accesses (Count)
system.cpu0.dtb_walker_cache.demandMissRate::switch_cpus0.mmu.dtb.walker     0.183190                       # miss rate for demand accesses (Ratio)
system.cpu0.dtb_walker_cache.demandMissRate::total     0.183190                       # miss rate for demand accesses (Ratio)
system.cpu0.dtb_walker_cache.overallMissRate::switch_cpus0.mmu.dtb.walker     0.183190                       # miss rate for overall accesses (Ratio)
system.cpu0.dtb_walker_cache.overallMissRate::total     0.183190                       # miss rate for overall accesses (Ratio)
system.cpu0.dtb_walker_cache.demandAvgMissLatency::switch_cpus0.mmu.dtb.walker 75104.492852                       # average overall miss latency in ticks ((Tick/Count))
system.cpu0.dtb_walker_cache.demandAvgMissLatency::total 75104.492852                       # average overall miss latency in ticks ((Tick/Count))
system.cpu0.dtb_walker_cache.overallAvgMissLatency::switch_cpus0.mmu.dtb.walker 75104.492852                       # average overall miss latency ((Tick/Count))
system.cpu0.dtb_walker_cache.overallAvgMissLatency::total 75104.492852                       # average overall miss latency ((Tick/Count))
system.cpu0.dtb_walker_cache.blockedCycles::no_mshrs            0                       # number of cycles access was blocked (Cycle)
system.cpu0.dtb_walker_cache.blockedCycles::no_targets            0                       # number of cycles access was blocked (Cycle)
system.cpu0.dtb_walker_cache.blockedCauses::no_mshrs            0                       # number of times access was blocked (Count)
system.cpu0.dtb_walker_cache.blockedCauses::no_targets            0                       # number of times access was blocked (Count)
system.cpu0.dtb_walker_cache.avgBlocked::no_mshrs          nan                       # average number of cycles each access was blocked ((Cycle/Count))
system.cpu0.dtb_walker_cache.avgBlocked::no_targets          nan                       # average number of cycles each access was blocked ((Cycle/Count))
system.cpu0.dtb_walker_cache.demandMshrMisses::switch_cpus0.mmu.dtb.walker         1469                       # number of demand (read+write) MSHR misses (Count)
system.cpu0.dtb_walker_cache.demandMshrMisses::total         1469                       # number of demand (read+write) MSHR misses (Count)
system.cpu0.dtb_walker_cache.overallMshrMisses::switch_cpus0.mmu.dtb.walker         1469                       # number of overall MSHR misses (Count)
system.cpu0.dtb_walker_cache.overallMshrMisses::total         1469                       # number of overall MSHR misses (Count)
system.cpu0.dtb_walker_cache.demandMshrMissLatency::switch_cpus0.mmu.dtb.walker    108859500                       # number of demand (read+write) MSHR miss ticks (Tick)
system.cpu0.dtb_walker_cache.demandMshrMissLatency::total    108859500                       # number of demand (read+write) MSHR miss ticks (Tick)
system.cpu0.dtb_walker_cache.overallMshrMissLatency::switch_cpus0.mmu.dtb.walker    108859500                       # number of overall MSHR miss ticks (Tick)
system.cpu0.dtb_walker_cache.overallMshrMissLatency::total    108859500                       # number of overall MSHR miss ticks (Tick)
system.cpu0.dtb_walker_cache.demandMshrMissRate::switch_cpus0.mmu.dtb.walker     0.183190                       # mshr miss ratio for demand accesses (Ratio)
system.cpu0.dtb_walker_cache.demandMshrMissRate::total     0.183190                       # mshr miss ratio for demand accesses (Ratio)
system.cpu0.dtb_walker_cache.overallMshrMissRate::switch_cpus0.mmu.dtb.walker     0.183190                       # mshr miss ratio for overall accesses (Ratio)
system.cpu0.dtb_walker_cache.overallMshrMissRate::total     0.183190                       # mshr miss ratio for overall accesses (Ratio)
system.cpu0.dtb_walker_cache.demandAvgMshrMissLatency::switch_cpus0.mmu.dtb.walker 74104.492852                       # average overall mshr miss latency ((Tick/Count))
system.cpu0.dtb_walker_cache.demandAvgMshrMissLatency::total 74104.492852                       # average overall mshr miss latency ((Tick/Count))
system.cpu0.dtb_walker_cache.overallAvgMshrMissLatency::switch_cpus0.mmu.dtb.walker 74104.492852                       # average overall mshr miss latency ((Tick/Count))
system.cpu0.dtb_walker_cache.overallAvgMshrMissLatency::total 74104.492852                       # average overall mshr miss latency ((Tick/Count))
system.cpu0.dtb_walker_cache.replacements         1426                       # number of replacements (Count)
system.cpu0.dtb_walker_cache.ReadReq.hits::switch_cpus0.mmu.dtb.walker         6550                       # number of ReadReq hits (Count)
system.cpu0.dtb_walker_cache.ReadReq.hits::total         6550                       # number of ReadReq hits (Count)
system.cpu0.dtb_walker_cache.ReadReq.misses::switch_cpus0.mmu.dtb.walker         1469                       # number of ReadReq misses (Count)
system.cpu0.dtb_walker_cache.ReadReq.misses::total         1469                       # number of ReadReq misses (Count)
system.cpu0.dtb_walker_cache.ReadReq.missLatency::switch_cpus0.mmu.dtb.walker    110328500                       # number of ReadReq miss ticks (Tick)
system.cpu0.dtb_walker_cache.ReadReq.missLatency::total    110328500                       # number of ReadReq miss ticks (Tick)
system.cpu0.dtb_walker_cache.ReadReq.accesses::switch_cpus0.mmu.dtb.walker         8019                       # number of ReadReq accesses(hits+misses) (Count)
system.cpu0.dtb_walker_cache.ReadReq.accesses::total         8019                       # number of ReadReq accesses(hits+misses) (Count)
system.cpu0.dtb_walker_cache.ReadReq.missRate::switch_cpus0.mmu.dtb.walker     0.183190                       # miss rate for ReadReq accesses (Ratio)
system.cpu0.dtb_walker_cache.ReadReq.missRate::total     0.183190                       # miss rate for ReadReq accesses (Ratio)
system.cpu0.dtb_walker_cache.ReadReq.avgMissLatency::switch_cpus0.mmu.dtb.walker 75104.492852                       # average ReadReq miss latency ((Tick/Count))
system.cpu0.dtb_walker_cache.ReadReq.avgMissLatency::total 75104.492852                       # average ReadReq miss latency ((Tick/Count))
system.cpu0.dtb_walker_cache.ReadReq.mshrMisses::switch_cpus0.mmu.dtb.walker         1469                       # number of ReadReq MSHR misses (Count)
system.cpu0.dtb_walker_cache.ReadReq.mshrMisses::total         1469                       # number of ReadReq MSHR misses (Count)
system.cpu0.dtb_walker_cache.ReadReq.mshrMissLatency::switch_cpus0.mmu.dtb.walker    108859500                       # number of ReadReq MSHR miss ticks (Tick)
system.cpu0.dtb_walker_cache.ReadReq.mshrMissLatency::total    108859500                       # number of ReadReq MSHR miss ticks (Tick)
system.cpu0.dtb_walker_cache.ReadReq.mshrMissRate::switch_cpus0.mmu.dtb.walker     0.183190                       # mshr miss rate for ReadReq accesses (Ratio)
system.cpu0.dtb_walker_cache.ReadReq.mshrMissRate::total     0.183190                       # mshr miss rate for ReadReq accesses (Ratio)
system.cpu0.dtb_walker_cache.ReadReq.avgMshrMissLatency::switch_cpus0.mmu.dtb.walker 74104.492852                       # average ReadReq mshr miss latency ((Tick/Count))
system.cpu0.dtb_walker_cache.ReadReq.avgMshrMissLatency::total 74104.492852                       # average ReadReq mshr miss latency ((Tick/Count))
system.cpu0.dtb_walker_cache.power_state.pwrStateResidencyTicks::UNDEFINED 4716148698000                       # Cumulative time (in ticks) in various power states (Tick)
system.cpu0.dtb_walker_cache.tags.tagsInUse    15.703522                       # Average ticks per tags in use ((Tick/Count))
system.cpu0.dtb_walker_cache.tags.totalRefs         8019                       # Total number of references to valid blocks. (Count)
system.cpu0.dtb_walker_cache.tags.sampledRefs         1469                       # Sample count of references to valid blocks. (Count)
system.cpu0.dtb_walker_cache.tags.avgRefs     5.458816                       # Average number of references to valid blocks. ((Count/Count))
system.cpu0.dtb_walker_cache.tags.warmupTick 4695630145000                       # The tick when the warmup percentage was hit. (Tick)
system.cpu0.dtb_walker_cache.tags.occupancies::switch_cpus0.mmu.dtb.walker    15.703522                       # Average occupied blocks per tick, per requestor ((Count/Tick))
system.cpu0.dtb_walker_cache.tags.avgOccs::switch_cpus0.mmu.dtb.walker     0.981470                       # Average percentage of cache occupancy ((Ratio/Tick))
system.cpu0.dtb_walker_cache.tags.avgOccs::total     0.981470                       # Average percentage of cache occupancy ((Ratio/Tick))
system.cpu0.dtb_walker_cache.tags.occupanciesTaskId::1024           16                       # Occupied blocks per task id (Count)
system.cpu0.dtb_walker_cache.tags.ageTaskId_1024::2           12                       # Occupied blocks per task id, per block age (Count)
system.cpu0.dtb_walker_cache.tags.ageTaskId_1024::3            4                       # Occupied blocks per task id, per block age (Count)
system.cpu0.dtb_walker_cache.tags.ratioOccsTaskId::1024            1                       # Ratio of occupied blocks and all blocks, per task id (Ratio)
system.cpu0.dtb_walker_cache.tags.tagAccesses        17507                       # Number of tag accesses (Count)
system.cpu0.dtb_walker_cache.tags.dataAccesses        17507                       # Number of data accesses (Count)
system.cpu0.dtb_walker_cache.tags.power_state.pwrStateResidencyTicks::UNDEFINED 4716148698000                       # Cumulative time (in ticks) in various power states (Tick)
system.cpu0.exec_context.thread_0.numMatAluAccesses            0                       # Number of matrix alu accesses (Count)
system.cpu0.exec_context.thread_0.numCallsReturns            1                       # Number of times a function call or return occured (Count)
system.cpu0.exec_context.thread_0.numMatInsts            0                       # Number of matrix instructions (Count)
system.cpu0.exec_context.thread_0.numIdleCycles            0                       # Number of idle cycles (Cycle)
system.cpu0.exec_context.thread_0.numBusyCycles           22                       # Number of busy cycles (Cycle)
system.cpu0.exec_context.thread_0.notIdleFraction            1                       # Percentage of non-idle cycles (Ratio)
system.cpu0.exec_context.thread_0.idleFraction            0                       # Percentage of idle cycles (Ratio)
system.cpu0.executeStats0.numInsts                  0                       # Number of executed instructions (Count)
system.cpu0.executeStats0.numNop                    0                       # Number of nop insts executed (Count)
system.cpu0.executeStats0.numBranches               0                       # Number of branches executed (Count)
system.cpu0.executeStats0.numLoadInsts              0                       # Number of load instructions executed (Count)
system.cpu0.executeStats0.numStoreInsts             3                       # Number of stores executed (Count)
system.cpu0.executeStats0.instRate                  0                       # Inst execution rate ((Count/Cycle))
system.cpu0.executeStats0.numFpRegWrites            0                       # Number of times the floating registers were written (Count)
system.cpu0.executeStats0.numIntAluAccesses           19                       # Number of integer alu accesses (Count)
system.cpu0.executeStats0.numIntRegReads           15                       # Number of times the integer registers were read (Count)
system.cpu0.executeStats0.numIntRegWrites           14                       # Number of times the integer registers were written (Count)
system.cpu0.executeStats0.numMemRefs                3                       # Number of memory refs (Count)
system.cpu0.executeStats0.numMiscRegReads           12                       # Number of times the Misc registers were read (Count)
system.cpu0.executeStats0.numVecAluAccesses            0                       # Number of vector alu accesses (Count)
system.cpu0.executeStats0.numDiscardedOps            0                       # Number of ops (including micro ops) which were discarded before commit (Count)
system.cpu0.fetchStats0.numInsts                    8                       # Number of instructions fetched (thread level) (Count)
system.cpu0.fetchStats0.numOps                     19                       # Number of ops (including micro ops) fetched (thread level) (Count)
system.cpu0.fetchStats0.fetchRate            0.363636                       # Number of inst fetches per cycle ((Count/Cycle))
system.cpu0.fetchStats0.numBranches                 4                       # Number of branches fetched (Count)
system.cpu0.fetchStats0.branchRate           0.181818                       # Number of branch fetches per cycle (Ratio)
system.cpu0.fetchStats0.numFetchSuspends            0                       # Number of times Execute suspended instruction fetching (Count)
system.cpu0.icache.demandHits::cpu0.inst            6                       # number of demand (read+write) hits (Count)
system.cpu0.icache.demandHits::switch_cpus0.inst       108620                       # number of demand (read+write) hits (Count)
system.cpu0.icache.demandHits::total           108626                       # number of demand (read+write) hits (Count)
system.cpu0.icache.overallHits::cpu0.inst            6                       # number of overall hits (Count)
system.cpu0.icache.overallHits::switch_cpus0.inst       108620                       # number of overall hits (Count)
system.cpu0.icache.overallHits::total          108626                       # number of overall hits (Count)
system.cpu0.icache.demandMisses::cpu0.inst            5                       # number of demand (read+write) misses (Count)
system.cpu0.icache.demandMisses::switch_cpus0.inst        18025                       # number of demand (read+write) misses (Count)
system.cpu0.icache.demandMisses::total          18030                       # number of demand (read+write) misses (Count)
system.cpu0.icache.overallMisses::cpu0.inst            5                       # number of overall misses (Count)
system.cpu0.icache.overallMisses::switch_cpus0.inst        18025                       # number of overall misses (Count)
system.cpu0.icache.overallMisses::total         18030                       # number of overall misses (Count)
system.cpu0.icache.demandMissLatency::switch_cpus0.inst   1222921498                       # number of demand (read+write) miss ticks (Tick)
system.cpu0.icache.demandMissLatency::total   1222921498                       # number of demand (read+write) miss ticks (Tick)
system.cpu0.icache.overallMissLatency::switch_cpus0.inst   1222921498                       # number of overall miss ticks (Tick)
system.cpu0.icache.overallMissLatency::total   1222921498                       # number of overall miss ticks (Tick)
system.cpu0.icache.demandAccesses::cpu0.inst           11                       # number of demand (read+write) accesses (Count)
system.cpu0.icache.demandAccesses::switch_cpus0.inst       126645                       # number of demand (read+write) accesses (Count)
system.cpu0.icache.demandAccesses::total       126656                       # number of demand (read+write) accesses (Count)
system.cpu0.icache.overallAccesses::cpu0.inst           11                       # number of overall (read+write) accesses (Count)
system.cpu0.icache.overallAccesses::switch_cpus0.inst       126645                       # number of overall (read+write) accesses (Count)
system.cpu0.icache.overallAccesses::total       126656                       # number of overall (read+write) accesses (Count)
system.cpu0.icache.demandMissRate::cpu0.inst     0.454545                       # miss rate for demand accesses (Ratio)
system.cpu0.icache.demandMissRate::switch_cpus0.inst     0.142327                       # miss rate for demand accesses (Ratio)
system.cpu0.icache.demandMissRate::total     0.142354                       # miss rate for demand accesses (Ratio)
system.cpu0.icache.overallMissRate::cpu0.inst     0.454545                       # miss rate for overall accesses (Ratio)
system.cpu0.icache.overallMissRate::switch_cpus0.inst     0.142327                       # miss rate for overall accesses (Ratio)
system.cpu0.icache.overallMissRate::total     0.142354                       # miss rate for overall accesses (Ratio)
system.cpu0.icache.demandAvgMissLatency::switch_cpus0.inst 67845.852871                       # average overall miss latency in ticks ((Tick/Count))
system.cpu0.icache.demandAvgMissLatency::total 67827.038159                       # average overall miss latency in ticks ((Tick/Count))
system.cpu0.icache.overallAvgMissLatency::switch_cpus0.inst 67845.852871                       # average overall miss latency ((Tick/Count))
system.cpu0.icache.overallAvgMissLatency::total 67827.038159                       # average overall miss latency ((Tick/Count))
system.cpu0.icache.blockedCycles::no_mshrs         2872                       # number of cycles access was blocked (Cycle)
system.cpu0.icache.blockedCycles::no_targets            0                       # number of cycles access was blocked (Cycle)
system.cpu0.icache.blockedCauses::no_mshrs           46                       # number of times access was blocked (Count)
system.cpu0.icache.blockedCauses::no_targets            0                       # number of times access was blocked (Count)
system.cpu0.icache.avgBlocked::no_mshrs     62.434783                       # average number of cycles each access was blocked ((Cycle/Count))
system.cpu0.icache.avgBlocked::no_targets          nan                       # average number of cycles each access was blocked ((Cycle/Count))
system.cpu0.icache.writebacks::writebacks        14279                       # number of writebacks (Count)
system.cpu0.icache.writebacks::total            14279                       # number of writebacks (Count)
system.cpu0.icache.demandMshrHits::switch_cpus0.inst         3239                       # number of demand (read+write) MSHR hits (Count)
system.cpu0.icache.demandMshrHits::total         3239                       # number of demand (read+write) MSHR hits (Count)
system.cpu0.icache.overallMshrHits::switch_cpus0.inst         3239                       # number of overall MSHR hits (Count)
system.cpu0.icache.overallMshrHits::total         3239                       # number of overall MSHR hits (Count)
system.cpu0.icache.demandMshrMisses::switch_cpus0.inst        14786                       # number of demand (read+write) MSHR misses (Count)
system.cpu0.icache.demandMshrMisses::total        14786                       # number of demand (read+write) MSHR misses (Count)
system.cpu0.icache.overallMshrMisses::switch_cpus0.inst        14786                       # number of overall MSHR misses (Count)
system.cpu0.icache.overallMshrMisses::total        14786                       # number of overall MSHR misses (Count)
system.cpu0.icache.demandMshrMissLatency::switch_cpus0.inst   1024740000                       # number of demand (read+write) MSHR miss ticks (Tick)
system.cpu0.icache.demandMshrMissLatency::total   1024740000                       # number of demand (read+write) MSHR miss ticks (Tick)
system.cpu0.icache.overallMshrMissLatency::switch_cpus0.inst   1024740000                       # number of overall MSHR miss ticks (Tick)
system.cpu0.icache.overallMshrMissLatency::total   1024740000                       # number of overall MSHR miss ticks (Tick)
system.cpu0.icache.demandMshrMissRate::switch_cpus0.inst     0.116752                       # mshr miss ratio for demand accesses (Ratio)
system.cpu0.icache.demandMshrMissRate::total     0.116741                       # mshr miss ratio for demand accesses (Ratio)
system.cpu0.icache.overallMshrMissRate::switch_cpus0.inst     0.116752                       # mshr miss ratio for overall accesses (Ratio)
system.cpu0.icache.overallMshrMissRate::total     0.116741                       # mshr miss ratio for overall accesses (Ratio)
system.cpu0.icache.demandAvgMshrMissLatency::switch_cpus0.inst 69304.747734                       # average overall mshr miss latency ((Tick/Count))
system.cpu0.icache.demandAvgMshrMissLatency::total 69304.747734                       # average overall mshr miss latency ((Tick/Count))
system.cpu0.icache.overallAvgMshrMissLatency::switch_cpus0.inst 69304.747734                       # average overall mshr miss latency ((Tick/Count))
system.cpu0.icache.overallAvgMshrMissLatency::total 69304.747734                       # average overall mshr miss latency ((Tick/Count))
system.cpu0.icache.replacements                 14279                       # number of replacements (Count)
system.cpu0.icache.ReadReq.hits::cpu0.inst            6                       # number of ReadReq hits (Count)
system.cpu0.icache.ReadReq.hits::switch_cpus0.inst       108620                       # number of ReadReq hits (Count)
system.cpu0.icache.ReadReq.hits::total         108626                       # number of ReadReq hits (Count)
system.cpu0.icache.ReadReq.misses::cpu0.inst            5                       # number of ReadReq misses (Count)
system.cpu0.icache.ReadReq.misses::switch_cpus0.inst        18025                       # number of ReadReq misses (Count)
system.cpu0.icache.ReadReq.misses::total        18030                       # number of ReadReq misses (Count)
system.cpu0.icache.ReadReq.missLatency::switch_cpus0.inst   1222921498                       # number of ReadReq miss ticks (Tick)
system.cpu0.icache.ReadReq.missLatency::total   1222921498                       # number of ReadReq miss ticks (Tick)
system.cpu0.icache.ReadReq.accesses::cpu0.inst           11                       # number of ReadReq accesses(hits+misses) (Count)
system.cpu0.icache.ReadReq.accesses::switch_cpus0.inst       126645                       # number of ReadReq accesses(hits+misses) (Count)
system.cpu0.icache.ReadReq.accesses::total       126656                       # number of ReadReq accesses(hits+misses) (Count)
system.cpu0.icache.ReadReq.missRate::cpu0.inst     0.454545                       # miss rate for ReadReq accesses (Ratio)
system.cpu0.icache.ReadReq.missRate::switch_cpus0.inst     0.142327                       # miss rate for ReadReq accesses (Ratio)
system.cpu0.icache.ReadReq.missRate::total     0.142354                       # miss rate for ReadReq accesses (Ratio)
system.cpu0.icache.ReadReq.avgMissLatency::switch_cpus0.inst 67845.852871                       # average ReadReq miss latency ((Tick/Count))
system.cpu0.icache.ReadReq.avgMissLatency::total 67827.038159                       # average ReadReq miss latency ((Tick/Count))
system.cpu0.icache.ReadReq.mshrHits::switch_cpus0.inst         3239                       # number of ReadReq MSHR hits (Count)
system.cpu0.icache.ReadReq.mshrHits::total         3239                       # number of ReadReq MSHR hits (Count)
system.cpu0.icache.ReadReq.mshrMisses::switch_cpus0.inst        14786                       # number of ReadReq MSHR misses (Count)
system.cpu0.icache.ReadReq.mshrMisses::total        14786                       # number of ReadReq MSHR misses (Count)
system.cpu0.icache.ReadReq.mshrMissLatency::switch_cpus0.inst   1024740000                       # number of ReadReq MSHR miss ticks (Tick)
system.cpu0.icache.ReadReq.mshrMissLatency::total   1024740000                       # number of ReadReq MSHR miss ticks (Tick)
system.cpu0.icache.ReadReq.mshrMissRate::switch_cpus0.inst     0.116752                       # mshr miss rate for ReadReq accesses (Ratio)
system.cpu0.icache.ReadReq.mshrMissRate::total     0.116741                       # mshr miss rate for ReadReq accesses (Ratio)
system.cpu0.icache.ReadReq.avgMshrMissLatency::switch_cpus0.inst 69304.747734                       # average ReadReq mshr miss latency ((Tick/Count))
system.cpu0.icache.ReadReq.avgMshrMissLatency::total 69304.747734                       # average ReadReq mshr miss latency ((Tick/Count))
system.cpu0.icache.power_state.pwrStateResidencyTicks::UNDEFINED 4716148698000                       # Cumulative time (in ticks) in various power states (Tick)
system.cpu0.icache.tags.tagsInUse          394.690476                       # Average ticks per tags in use ((Tick/Count))
system.cpu0.icache.tags.totalRefs              123417                       # Total number of references to valid blocks. (Count)
system.cpu0.icache.tags.sampledRefs             14791                       # Sample count of references to valid blocks. (Count)
system.cpu0.icache.tags.avgRefs              8.344061                       # Average number of references to valid blocks. ((Count/Count))
system.cpu0.icache.tags.warmupTick       4695629801500                       # The tick when the warmup percentage was hit. (Tick)
system.cpu0.icache.tags.occupancies::cpu0.inst     0.896486                       # Average occupied blocks per tick, per requestor ((Count/Tick))
system.cpu0.icache.tags.occupancies::switch_cpus0.inst   393.793990                       # Average occupied blocks per tick, per requestor ((Count/Tick))
system.cpu0.icache.tags.avgOccs::cpu0.inst     0.001751                       # Average percentage of cache occupancy ((Ratio/Tick))
system.cpu0.icache.tags.avgOccs::switch_cpus0.inst     0.769129                       # Average percentage of cache occupancy ((Ratio/Tick))
system.cpu0.icache.tags.avgOccs::total       0.770880                       # Average percentage of cache occupancy ((Ratio/Tick))
system.cpu0.icache.tags.occupanciesTaskId::1024          512                       # Occupied blocks per task id (Count)
system.cpu0.icache.tags.ageTaskId_1024::2          252                       # Occupied blocks per task id, per block age (Count)
system.cpu0.icache.tags.ageTaskId_1024::3          260                       # Occupied blocks per task id, per block age (Count)
system.cpu0.icache.tags.ratioOccsTaskId::1024            1                       # Ratio of occupied blocks and all blocks, per task id (Ratio)
system.cpu0.icache.tags.tagAccesses            268103                       # Number of tag accesses (Count)
system.cpu0.icache.tags.dataAccesses           268103                       # Number of data accesses (Count)
system.cpu0.icache.tags.power_state.pwrStateResidencyTicks::UNDEFINED 4716148698000                       # Cumulative time (in ticks) in various power states (Tick)
system.cpu0.interrupts.clk_domain.clock          8000                       # Clock period in ticks (Tick)
system.cpu0.itb_walker_cache.demandHits::switch_cpus0.mmu.itb.walker         1312                       # number of demand (read+write) hits (Count)
system.cpu0.itb_walker_cache.demandHits::total         1312                       # number of demand (read+write) hits (Count)
system.cpu0.itb_walker_cache.overallHits::switch_cpus0.mmu.itb.walker         1312                       # number of overall hits (Count)
system.cpu0.itb_walker_cache.overallHits::total         1312                       # number of overall hits (Count)
system.cpu0.itb_walker_cache.demandMisses::switch_cpus0.mmu.itb.walker          290                       # number of demand (read+write) misses (Count)
system.cpu0.itb_walker_cache.demandMisses::total          290                       # number of demand (read+write) misses (Count)
system.cpu0.itb_walker_cache.overallMisses::switch_cpus0.mmu.itb.walker          290                       # number of overall misses (Count)
system.cpu0.itb_walker_cache.overallMisses::total          290                       # number of overall misses (Count)
system.cpu0.itb_walker_cache.demandMissLatency::switch_cpus0.mmu.itb.walker     22820500                       # number of demand (read+write) miss ticks (Tick)
system.cpu0.itb_walker_cache.demandMissLatency::total     22820500                       # number of demand (read+write) miss ticks (Tick)
system.cpu0.itb_walker_cache.overallMissLatency::switch_cpus0.mmu.itb.walker     22820500                       # number of overall miss ticks (Tick)
system.cpu0.itb_walker_cache.overallMissLatency::total     22820500                       # number of overall miss ticks (Tick)
system.cpu0.itb_walker_cache.demandAccesses::switch_cpus0.mmu.itb.walker         1602                       # number of demand (read+write) accesses (Count)
system.cpu0.itb_walker_cache.demandAccesses::total         1602                       # number of demand (read+write) accesses (Count)
system.cpu0.itb_walker_cache.overallAccesses::switch_cpus0.mmu.itb.walker         1602                       # number of overall (read+write) accesses (Count)
system.cpu0.itb_walker_cache.overallAccesses::total         1602                       # number of overall (read+write) accesses (Count)
system.cpu0.itb_walker_cache.demandMissRate::switch_cpus0.mmu.itb.walker     0.181024                       # miss rate for demand accesses (Ratio)
system.cpu0.itb_walker_cache.demandMissRate::total     0.181024                       # miss rate for demand accesses (Ratio)
system.cpu0.itb_walker_cache.overallMissRate::switch_cpus0.mmu.itb.walker     0.181024                       # miss rate for overall accesses (Ratio)
system.cpu0.itb_walker_cache.overallMissRate::total     0.181024                       # miss rate for overall accesses (Ratio)
system.cpu0.itb_walker_cache.demandAvgMissLatency::switch_cpus0.mmu.itb.walker 78691.379310                       # average overall miss latency in ticks ((Tick/Count))
system.cpu0.itb_walker_cache.demandAvgMissLatency::total 78691.379310                       # average overall miss latency in ticks ((Tick/Count))
system.cpu0.itb_walker_cache.overallAvgMissLatency::switch_cpus0.mmu.itb.walker 78691.379310                       # average overall miss latency ((Tick/Count))
system.cpu0.itb_walker_cache.overallAvgMissLatency::total 78691.379310                       # average overall miss latency ((Tick/Count))
system.cpu0.itb_walker_cache.blockedCycles::no_mshrs            0                       # number of cycles access was blocked (Cycle)
system.cpu0.itb_walker_cache.blockedCycles::no_targets            0                       # number of cycles access was blocked (Cycle)
system.cpu0.itb_walker_cache.blockedCauses::no_mshrs            0                       # number of times access was blocked (Count)
system.cpu0.itb_walker_cache.blockedCauses::no_targets            0                       # number of times access was blocked (Count)
system.cpu0.itb_walker_cache.avgBlocked::no_mshrs          nan                       # average number of cycles each access was blocked ((Cycle/Count))
system.cpu0.itb_walker_cache.avgBlocked::no_targets          nan                       # average number of cycles each access was blocked ((Cycle/Count))
system.cpu0.itb_walker_cache.demandMshrMisses::switch_cpus0.mmu.itb.walker          290                       # number of demand (read+write) MSHR misses (Count)
system.cpu0.itb_walker_cache.demandMshrMisses::total          290                       # number of demand (read+write) MSHR misses (Count)
system.cpu0.itb_walker_cache.overallMshrMisses::switch_cpus0.mmu.itb.walker          290                       # number of overall MSHR misses (Count)
system.cpu0.itb_walker_cache.overallMshrMisses::total          290                       # number of overall MSHR misses (Count)
system.cpu0.itb_walker_cache.demandMshrMissLatency::switch_cpus0.mmu.itb.walker     22530500                       # number of demand (read+write) MSHR miss ticks (Tick)
system.cpu0.itb_walker_cache.demandMshrMissLatency::total     22530500                       # number of demand (read+write) MSHR miss ticks (Tick)
system.cpu0.itb_walker_cache.overallMshrMissLatency::switch_cpus0.mmu.itb.walker     22530500                       # number of overall MSHR miss ticks (Tick)
system.cpu0.itb_walker_cache.overallMshrMissLatency::total     22530500                       # number of overall MSHR miss ticks (Tick)
system.cpu0.itb_walker_cache.demandMshrMissRate::switch_cpus0.mmu.itb.walker     0.181024                       # mshr miss ratio for demand accesses (Ratio)
system.cpu0.itb_walker_cache.demandMshrMissRate::total     0.181024                       # mshr miss ratio for demand accesses (Ratio)
system.cpu0.itb_walker_cache.overallMshrMissRate::switch_cpus0.mmu.itb.walker     0.181024                       # mshr miss ratio for overall accesses (Ratio)
system.cpu0.itb_walker_cache.overallMshrMissRate::total     0.181024                       # mshr miss ratio for overall accesses (Ratio)
system.cpu0.itb_walker_cache.demandAvgMshrMissLatency::switch_cpus0.mmu.itb.walker 77691.379310                       # average overall mshr miss latency ((Tick/Count))
system.cpu0.itb_walker_cache.demandAvgMshrMissLatency::total 77691.379310                       # average overall mshr miss latency ((Tick/Count))
system.cpu0.itb_walker_cache.overallAvgMshrMissLatency::switch_cpus0.mmu.itb.walker 77691.379310                       # average overall mshr miss latency ((Tick/Count))
system.cpu0.itb_walker_cache.overallAvgMshrMissLatency::total 77691.379310                       # average overall mshr miss latency ((Tick/Count))
system.cpu0.itb_walker_cache.replacements          273                       # number of replacements (Count)
system.cpu0.itb_walker_cache.ReadReq.hits::switch_cpus0.mmu.itb.walker         1312                       # number of ReadReq hits (Count)
system.cpu0.itb_walker_cache.ReadReq.hits::total         1312                       # number of ReadReq hits (Count)
system.cpu0.itb_walker_cache.ReadReq.misses::switch_cpus0.mmu.itb.walker          290                       # number of ReadReq misses (Count)
system.cpu0.itb_walker_cache.ReadReq.misses::total          290                       # number of ReadReq misses (Count)
system.cpu0.itb_walker_cache.ReadReq.missLatency::switch_cpus0.mmu.itb.walker     22820500                       # number of ReadReq miss ticks (Tick)
system.cpu0.itb_walker_cache.ReadReq.missLatency::total     22820500                       # number of ReadReq miss ticks (Tick)
system.cpu0.itb_walker_cache.ReadReq.accesses::switch_cpus0.mmu.itb.walker         1602                       # number of ReadReq accesses(hits+misses) (Count)
system.cpu0.itb_walker_cache.ReadReq.accesses::total         1602                       # number of ReadReq accesses(hits+misses) (Count)
system.cpu0.itb_walker_cache.ReadReq.missRate::switch_cpus0.mmu.itb.walker     0.181024                       # miss rate for ReadReq accesses (Ratio)
system.cpu0.itb_walker_cache.ReadReq.missRate::total     0.181024                       # miss rate for ReadReq accesses (Ratio)
system.cpu0.itb_walker_cache.ReadReq.avgMissLatency::switch_cpus0.mmu.itb.walker 78691.379310                       # average ReadReq miss latency ((Tick/Count))
system.cpu0.itb_walker_cache.ReadReq.avgMissLatency::total 78691.379310                       # average ReadReq miss latency ((Tick/Count))
system.cpu0.itb_walker_cache.ReadReq.mshrMisses::switch_cpus0.mmu.itb.walker          290                       # number of ReadReq MSHR misses (Count)
system.cpu0.itb_walker_cache.ReadReq.mshrMisses::total          290                       # number of ReadReq MSHR misses (Count)
system.cpu0.itb_walker_cache.ReadReq.mshrMissLatency::switch_cpus0.mmu.itb.walker     22530500                       # number of ReadReq MSHR miss ticks (Tick)
system.cpu0.itb_walker_cache.ReadReq.mshrMissLatency::total     22530500                       # number of ReadReq MSHR miss ticks (Tick)
system.cpu0.itb_walker_cache.ReadReq.mshrMissRate::switch_cpus0.mmu.itb.walker     0.181024                       # mshr miss rate for ReadReq accesses (Ratio)
system.cpu0.itb_walker_cache.ReadReq.mshrMissRate::total     0.181024                       # mshr miss rate for ReadReq accesses (Ratio)
system.cpu0.itb_walker_cache.ReadReq.avgMshrMissLatency::switch_cpus0.mmu.itb.walker 77691.379310                       # average ReadReq mshr miss latency ((Tick/Count))
system.cpu0.itb_walker_cache.ReadReq.avgMshrMissLatency::total 77691.379310                       # average ReadReq mshr miss latency ((Tick/Count))
system.cpu0.itb_walker_cache.power_state.pwrStateResidencyTicks::UNDEFINED 4716148698000                       # Cumulative time (in ticks) in various power states (Tick)
system.cpu0.itb_walker_cache.tags.tagsInUse     6.685479                       # Average ticks per tags in use ((Tick/Count))
system.cpu0.itb_walker_cache.tags.totalRefs         1602                       # Total number of references to valid blocks. (Count)
system.cpu0.itb_walker_cache.tags.sampledRefs          290                       # Sample count of references to valid blocks. (Count)
system.cpu0.itb_walker_cache.tags.avgRefs     5.524138                       # Average number of references to valid blocks. ((Count/Count))
system.cpu0.itb_walker_cache.tags.warmupTick 4695629889000                       # The tick when the warmup percentage was hit. (Tick)
system.cpu0.itb_walker_cache.tags.occupancies::switch_cpus0.mmu.itb.walker     6.685479                       # Average occupied blocks per tick, per requestor ((Count/Tick))
system.cpu0.itb_walker_cache.tags.avgOccs::switch_cpus0.mmu.itb.walker     0.417842                       # Average percentage of cache occupancy ((Ratio/Tick))
system.cpu0.itb_walker_cache.tags.avgOccs::total     0.417842                       # Average percentage of cache occupancy ((Ratio/Tick))
system.cpu0.itb_walker_cache.tags.occupanciesTaskId::1024           16                       # Occupied blocks per task id (Count)
system.cpu0.itb_walker_cache.tags.ageTaskId_1024::3           16                       # Occupied blocks per task id, per block age (Count)
system.cpu0.itb_walker_cache.tags.ratioOccsTaskId::1024            1                       # Ratio of occupied blocks and all blocks, per task id (Ratio)
[...]
system.switch_cpus3.fetch.nisnDist::stdev     2.479180                       # Number of instructions fetched each cycle (Total) (Count)
system.switch_cpus3.fetch.nisnDist::underflows            0      0.00%      0.00% # Number of instructions fetched each cycle (Total) (Count)
system.switch_cpus3.fetch.nisnDist::0         1257480     81.56%     81.56% # Number of instructions fetched each cycle (Total) (Count)
system.switch_cpus3.fetch.nisnDist::1           23846      1.55%     83.10% # Number of instructions fetched each cycle (Total) (Count)
system.switch_cpus3.fetch.nisnDist::2           22194      1.44%     84.54% # Number of instructions fetched each cycle (Total) (Count)
system.switch_cpus3.fetch.nisnDist::3           25540      1.66%     86.20% # Number of instructions fetched each cycle (Total) (Count)
system.switch_cpus3.fetch.nisnDist::4           20255      1.31%     87.51% # Number of instructions fetched each cycle (Total) (Count)
system.switch_cpus3.fetch.nisnDist::5           24431      1.58%     89.10% # Number of instructions fetched each cycle (Total) (Count)
system.switch_cpus3.fetch.nisnDist::6           19721      1.28%     90.37% # Number of instructions fetched each cycle (Total) (Count)
system.switch_cpus3.fetch.nisnDist::7           18266      1.18%     91.56% # Number of instructions fetched each cycle (Total) (Count)
system.switch_cpus3.fetch.nisnDist::8          130141      8.44%    100.00% # Number of instructions fetched each cycle (Total) (Count)
system.switch_cpus3.fetch.nisnDist::overflows            0      0.00%    100.00% # Number of instructions fetched each cycle (Total) (Count)
system.switch_cpus3.fetch.nisnDist::min_value            0                       # Number of instructions fetched each cycle (Total) (Count)
system.switch_cpus3.fetch.nisnDist::max_value            8                       # Number of instructions fetched each cycle (Total) (Count)
system.switch_cpus3.fetch.nisnDist::total      1541874                       # Number of instructions fetched each cycle (Total) (Count)
system.switch_cpus3.fetchStats0.numInsts       690628                       # Number of instructions fetched (thread level) (Count)
system.switch_cpus3.fetchStats0.numOps              0                       # Number of ops (including micro ops) fetched (thread level) (Count)
system.switch_cpus3.fetchStats0.fetchRate     0.246087                       # Number of inst fetches per cycle ((Count/Cycle))
system.switch_cpus3.fetchStats0.numBranches       220175                       # Number of branches fetched (Count)
system.switch_cpus3.fetchStats0.branchRate     0.078454                       # Number of branch fetches per cycle (Ratio)
system.switch_cpus3.fetchStats0.icacheStallCycles       619686                       # ICache total stall cycles (Cycle)
system.switch_cpus3.fetchStats0.numFetchSuspends            0                       # Number of times Execute suspended instruction fetching (Count)
system.switch_cpus3.iew.idleCycles                  0                       # Number of cycles IEW is idle (Cycle)
system.switch_cpus3.iew.squashCycles            11148                       # Number of cycles IEW is squashing (Cycle)
system.switch_cpus3.iew.blockCycles            162259                       # Number of cycles IEW is blocking (Cycle)
system.switch_cpus3.iew.unblockCycles           23274                       # Number of cycles IEW is unblocking (Cycle)
system.switch_cpus3.iew.dispatchedInsts       1407105                       # Number of instructions dispatched to IQ (Count)
system.switch_cpus3.iew.dispSquashedInsts         1959                       # Number of squashed instructions skipped by dispatch (Count)
system.switch_cpus3.iew.dispLoadInsts          178210                       # Number of dispatched load instructions (Count)
system.switch_cpus3.iew.dispStoreInsts         118675                       # Number of dispatched store instructions (Count)
system.switch_cpus3.iew.dispNonSpecInsts         8610                       # Number of dispatched non-speculative instructions (Count)
system.switch_cpus3.iew.iqFullEvents             2935                       # Number of times the IQ has become full, causing a stall (Count)
system.switch_cpus3.iew.lsqFullEvents           18379                       # Number of times the LSQ has become full, causing a stall (Count)
system.switch_cpus3.iew.memOrderViolationEvents          485                       # Number of memory order violations (Count)
system.switch_cpus3.iew.predictedTakenIncorrect         2477                       # Number of branches that were predicted taken incorrectly (Count)
system.switch_cpus3.iew.predictedNotTakenIncorrect         8980                       # Number of branches that were predicted not taken incorrectly (Count)
system.switch_cpus3.iew.branchMispredicts        11457                       # Number of branch mispredicts detected at execute (Count)
system.switch_cpus3.iew.instsToCommit         1327457                       # Cumulative count of insts sent to commit (Count)
system.switch_cpus3.iew.writebackCount        1324424                       # Cumulative count of insts written-back (Count)
system.switch_cpus3.iew.producerInst           848565                       # Number of instructions producing a value (Count)
system.switch_cpus3.iew.consumerInst          1449395                       # Number of instructions consuming a value (Count)
system.switch_cpus3.iew.wbRate               0.471924                       # Insts written-back per cycle ((Count/Cycle))
system.switch_cpus3.iew.wbFanout             0.585462                       # Average fanout of values written-back ((Count/Count))
system.switch_cpus3.lsq0.forwLoads              25016                       # Number of loads that had data forwarded from stores (Count)
system.switch_cpus3.lsq0.squashedLoads          26209                       # Number of loads squashed (Count)
system.switch_cpus3.lsq0.ignoredResponses          174                       # Number of memory responses ignored because the instruction is squashed (Count)
system.switch_cpus3.lsq0.memOrderViolation          485                       # Number of memory ordering violations (Count)
system.switch_cpus3.lsq0.squashedStores         17239                       # Number of stores squashed (Count)
system.switch_cpus3.lsq0.rescheduledLoads           70                       # Number of loads that were rescheduled (Count)
system.switch_cpus3.lsq0.blockedByCache           151                       # Number of times an access to memory failed due to the cache being blocked (Count)
system.switch_cpus3.lsq0.loadToUse::samples       151907                       # Distribution of cycle latency between the first time a load is issued and its completion (Unspecified)
system.switch_cpus3.lsq0.loadToUse::mean     9.747879                       # Distribution of cycle latency between the first time a load is issued and its completion (Unspecified)
system.switch_cpus3.lsq0.loadToUse::stdev    39.863744                       # Distribution of cycle latency between the first time a load is issued and its completion (Unspecified)
system.switch_cpus3.lsq0.loadToUse::0-9        144210     94.93%     94.93% # Distribution of cycle latency between the first time a load is issued and its completion (Unspecified)
system.switch_cpus3.lsq0.loadToUse::10-19          641      0.42%     95.36% # Distribution of cycle latency between the first time a load is issued and its completion (Unspecified)
system.switch_cpus3.lsq0.loadToUse::20-29          682      0.45%     95.80% # Distribution of cycle latency between the first time a load is issued and its completion (Unspecified)
system.switch_cpus3.lsq0.loadToUse::30-39          461      0.30%     96.11% # Distribution of cycle latency between the first time a load is issued and its completion (Unspecified)
system.switch_cpus3.lsq0.loadToUse::40-49          151      0.10%     96.21% # Distribution of cycle latency between the first time a load is issued and its completion (Unspecified)
system.switch_cpus3.lsq0.loadToUse::50-59           63      0.04%     96.25% # Distribution of cycle latency between the first time a load is issued and its completion (Unspecified)
system.switch_cpus3.lsq0.loadToUse::60-69           79      0.05%     96.30% # Distribution of cycle latency between the first time a load is issued and its completion (Unspecified)
system.switch_cpus3.lsq0.loadToUse::70-79           76      0.05%     96.35% # Distribution of cycle latency between the first time a load is issued and its completion (Unspecified)
system.switch_cpus3.lsq0.loadToUse::80-89          105      0.07%     96.42% # Distribution of cycle latency between the first time a load is issued and its completion (Unspecified)
system.switch_cpus3.lsq0.loadToUse::90-99          319      0.21%     96.63% # Distribution of cycle latency between the first time a load is issued and its completion (Unspecified)
system.switch_cpus3.lsq0.loadToUse::100-109         1180      0.78%     97.41% # Distribution of cycle latency between the first time a load is issued and its completion (Unspecified)
system.switch_cpus3.lsq0.loadToUse::110-119          343      0.23%     97.63% # Distribution of cycle latency between the first time a load is issued and its completion (Unspecified)
system.switch_cpus3.lsq0.loadToUse::120-129          148      0.10%     97.73% # Distribution of cycle latency between the first time a load is issued and its completion (Unspecified)
system.switch_cpus3.lsq0.loadToUse::130-139          582      0.38%     98.11% # Distribution of cycle latency between the first time a load is issued and its completion (Unspecified)
system.switch_cpus3.lsq0.loadToUse::140-149          212      0.14%     98.25% # Distribution of cycle latency between the first time a load is issued and its completion (Unspecified)
system.switch_cpus3.lsq0.loadToUse::150-159          335      0.22%     98.47% # Distribution of cycle latency between the first time a load is issued and its completion (Unspecified)
system.switch_cpus3.lsq0.loadToUse::160-169          946      0.62%     99.10% # Distribution of cycle latency between the first time a load is issued and its completion (Unspecified)
system.switch_cpus3.lsq0.loadToUse::170-179          285      0.19%     99.28% # Distribution of cycle latency between the first time a load is issued and its completion (Unspecified)
system.switch_cpus3.lsq0.loadToUse::180-189           84      0.06%     99.34% # Distribution of cycle latency between the first time a load is issued and its completion (Unspecified)
system.switch_cpus3.lsq0.loadToUse::190-199           72      0.05%     99.39% # Distribution of cycle latency between the first time a load is issued and its completion (Unspecified)
system.switch_cpus3.lsq0.loadToUse::200-209           47      0.03%     99.42% # Distribution of cycle latency between the first time a load is issued and its completion (Unspecified)
system.switch_cpus3.lsq0.loadToUse::210-219           51      0.03%     99.45% # Distribution of cycle latency between the first time a load is issued and its completion (Unspecified)
system.switch_cpus3.lsq0.loadToUse::220-229           33      0.02%     99.47% # Distribution of cycle latency between the first time a load is issued and its completion (Unspecified)
system.switch_cpus3.lsq0.loadToUse::230-239           33      0.02%     99.49% # Distribution of cycle latency between the first time a load is issued and its completion (Unspecified)
system.switch_cpus3.lsq0.loadToUse::240-249           31      0.02%     99.51% # Distribution of cycle latency between the first time a load is issued and its completion (Unspecified)
system.switch_cpus3.lsq0.loadToUse::250-259           55      0.04%     99.55% # Distribution of cycle latency between the first time a load is issued and its completion (Unspecified)
system.switch_cpus3.lsq0.loadToUse::260-269           39      0.03%     99.58% # Distribution of cycle latency between the first time a load is issued and its completion (Unspecified)
system.switch_cpus3.lsq0.loadToUse::270-279           65      0.04%     99.62% # Distribution of cycle latency between the first time a load is issued and its completion (Unspecified)
system.switch_cpus3.lsq0.loadToUse::280-289           31      0.02%     99.64% # Distribution of cycle latency between the first time a load is issued and its completion (Unspecified)
system.switch_cpus3.lsq0.loadToUse::290-299           47      0.03%     99.67% # Distribution of cycle latency between the first time a load is issued and its completion (Unspecified)
system.switch_cpus3.lsq0.loadToUse::overflows          501      0.33%    100.00% # Distribution of cycle latency between the first time a load is issued and its completion (Unspecified)
system.switch_cpus3.lsq0.loadToUse::min_value            2                       # Distribution of cycle latency between the first time a load is issued and its completion (Unspecified)
system.switch_cpus3.lsq0.loadToUse::max_value         1199                       # Distribution of cycle latency between the first time a load is issued and its completion (Unspecified)
system.switch_cpus3.lsq0.loadToUse::total       151907                       # Distribution of cycle latency between the first time a load is issued and its completion (Unspecified)
system.switch_cpus3.mmu.dtb.rdAccesses         169857                       # TLB accesses on read requests (Count)
system.switch_cpus3.mmu.dtb.wrAccesses         111334                       # TLB accesses on write requests (Count)
system.switch_cpus3.mmu.dtb.rdMisses             1558                       # TLB misses on read requests (Count)
system.switch_cpus3.mmu.dtb.wrMisses              768                       # TLB misses on write requests (Count)
system.switch_cpus3.mmu.dtb.walker.power_state.pwrStateResidencyTicks::UNDEFINED 4716148698000                       # Cumulative time (in ticks) in various power states (Tick)
system.switch_cpus3.mmu.itb.rdAccesses              0                       # TLB accesses on read requests (Count)
system.switch_cpus3.mmu.itb.wrAccesses         136372                       # TLB accesses on write requests (Count)
system.switch_cpus3.mmu.itb.rdMisses                0                       # TLB misses on read requests (Count)
system.switch_cpus3.mmu.itb.wrMisses              429                       # TLB misses on write requests (Count)
system.switch_cpus3.mmu.itb.walker.power_state.pwrStateResidencyTicks::UNDEFINED 4716148698000                       # Cumulative time (in ticks) in various power states (Tick)
system.switch_cpus3.power_state.numTransitions           73                       # Number of power state transitions (Count)
system.switch_cpus3.power_state.ticksClkGated::samples           37                       # Distribution of time spent in the clock gated state (Tick)
system.switch_cpus3.power_state.ticksClkGated::mean 516640162.162162                       # Distribution of time spent in the clock gated state (Tick)
system.switch_cpus3.power_state.ticksClkGated::stdev 370420068.358960                       # Distribution of time spent in the clock gated state (Tick)
system.switch_cpus3.power_state.ticksClkGated::1000-5e+10           37    100.00%    100.00% # Distribution of time spent in the clock gated state (Tick)
system.switch_cpus3.power_state.ticksClkGated::min_value      7670500                       # Distribution of time spent in the clock gated state (Tick)
system.switch_cpus3.power_state.ticksClkGated::max_value    995719000                       # Distribution of time spent in the clock gated state (Tick)
system.switch_cpus3.power_state.ticksClkGated::total           37                       # Distribution of time spent in the clock gated state (Tick)
system.switch_cpus3.power_state.pwrStateResidencyTicks::ON   1398735500                       # Cumulative time (in ticks) in various power states (Tick)
system.switch_cpus3.power_state.pwrStateResidencyTicks::CLK_GATED  19115686000                       # Cumulative time (in ticks) in various power states (Tick)
system.switch_cpus3.power_state.pwrStateResidencyTicks::OFF      4475500                       # Cumulative time (in ticks) in various power states (Tick)
system.switch_cpus3.rename.squashCycles         11148                       # Number of cycles rename is squashing (Cycle)
system.switch_cpus3.rename.idleCycles          568556                       # Number of cycles rename is idle (Cycle)
system.switch_cpus3.rename.blockCycles         234488                       # Number of cycles rename is blocking (Cycle)
system.switch_cpus3.rename.serializeStallCycles       202034                       # count of cycles rename stalled for serializing inst (Cycle)
system.switch_cpus3.rename.runCycles           215617                       # Number of cycles rename is running (Cycle)
system.switch_cpus3.rename.unblockCycles       310023                       # Number of cycles rename is unblocking (Cycle)
system.switch_cpus3.rename.renamedInsts       1437948                       # Number of instructions processed by rename (Count)
system.switch_cpus3.rename.ROBFullEvents         1891                       # Number of times rename has blocked due to ROB full (Count)
system.switch_cpus3.rename.IQFullEvents         52532                       # Number of times rename has blocked due to IQ full (Count)
system.switch_cpus3.rename.LQFullEvents          3846                       # Number of times rename has blocked due to LQ full (Count)
system.switch_cpus3.rename.SQFullEvents        245282                       # Number of times rename has blocked due to SQ full (Count)
system.switch_cpus3.rename.renamedOperands      2143927                       # Number of destination operands rename has renamed (Count)
system.switch_cpus3.rename.lookups            4526603                       # Number of register rename lookups that rename has made (Count)
system.switch_cpus3.rename.intLookups         1840042                       # Number of integer rename lookups (Count)
system.switch_cpus3.rename.fpLookups              729                       # Number of floating rename lookups (Count)
system.switch_cpus3.rename.committedMaps      1781457                       # Number of HB maps that are committed (Count)
system.switch_cpus3.rename.undoneMaps          362470                       # Number of HB maps that are undone due to squashing (Count)
system.switch_cpus3.rename.serializing           7446                       # count of serializing insts renamed (Count)
system.switch_cpus3.rename.tempSerializing         6026                       # count of temporary serializing insts renamed (Count)
system.switch_cpus3.rename.skidInsts           204965                       # count of insts added to the skid buffer (Count)
system.switch_cpus3.rob.reads                 2857715                       # The number of ROB reads (Count)
system.switch_cpus3.rob.writes                2846430                       # The number of ROB writes (Count)
system.switch_cpus3.thread_0.numInsts          503121                       # Number of Instructions committed (Count)
system.switch_cpus3.thread_0.numOps           1193990                       # Number of Ops committed (Count)
system.switch_cpus3.thread_0.numMemRefs             0                       # Number of Memory References (Count)
system.voltage_domain.voltage                       1                       # Voltage in Volts (Volt)
system.workload.inst.arm                            0                       # number of arm instructions executed (Count)
system.workload.inst.quiesce                        0                       # number of quiesce instructions executed (Count)

---------- End Simulation Statistics   ----------
